<?xml version="1.0" encoding="UTF-8"?>

<!-- generated on Thu Oct 24 15:31:24 2019 by Eclipse SUMO Version 1.0.1
-->

<configuration xmlns:xsi="http://www.w3.org/2001/XMLSchema-instance" xsi:noNamespaceSchemaLocation="http://sumo.dlr.de/xsd/sumoConfiguration.xsd">

    <input>
        <net-file value="ParisScenario.net.xml"/>
        <route-files value="ParisScenario.0.rou.xml,ParisScenario.1.rou.xml,ParisScenario.2.rou.xml,ParisScenario.3.rou.xml,ParisScenario.4.rou.xml,ParisScenario.5.rou.xml,ParisScenario.6.rou.xml,ParisScenario.7.rou.xml,ParisScenario.8.rou.xml,ParisScenario.9.rou.xml,ParisScenario.10.rou.xml,ParisScenario.11.rou.xml,ParisScenario.12.rou.xml,ParisScenario.13.rou.xml,ParisScenario.14.rou.xml"/>
        <additional-files value="ParisScenario.poly.xml"/>
    </input>

    <time>
        <begin value="0"/>
        <end value="86400"/>
        <step-length value="0.1"/>
    </time>

    <gui_only>
        <gui-settings-file value="gui-settings.cfg.xml"/>
        <start value="true"/>
    </gui_only>

</configuration>
