<routes>
<vType maxSpeed="75.00" probability="0.40" color="204,51,51" accel="3.0" decel="4.4" vClass="passenger" emergencyDecel="4.5" length="5.00" minGap="1.00" speedFactor="normc(1.00,0.10,0.20,2.00)" sigma="0.5" id="passenger1c"/>
    <vehicle type="passenger1c" depart="0.00" id="a1c0"><route edges="50557199#0 50557199#1 221586669#5 50557197#0 -17264368#1 -17264368#0 22715942#0 22715942#1 22715942#2 22715942#3 22715942#4 22715942#5 123487813#0 123487813#1 156382084#0 156382084#1 123486075#0 123486075#1 123486075#2 123486075#3 123486075#4 697946271 505935716#0 505935716#1 390294220 41463245#0 41463245#1 41465215#0 55338728#0 55338728#1 55338728#2 34678852#0 34678852#1 171879421#0 171879421#1 569948204#0 569948204#1 569948204#2 569948204#3 569948204#4 4527645#0 4527645#2 4527645#3 4527645#4 4527645#5 569948205#0 569948205#1 569948205#2 681709632#1 41739090 4040099#0 138031419 4039550 290820396#0 290820396#1 290820396#6 4039813 20104602 4040038#0 4040038#1 4040038#2 4040038#3 4040038#4 233487384#0 233487384#1 22706126#0 19780769 22706102#0 22706102#1 22706102#2 22706102#3 20107406#1 20107406#2 20107557 34676749 625390088 4216820 34856532 23170629#0 4216823                        "></route></vehicle>
    <vehicle type="passenger1c" depart="240.00" id="a1c1"><route edges="191714991#0 191714991#2 191714991#3 77532358#3 25466981#0 -22956671 4039212#2 4039212#3 4039212#4 4039212#6 4039212#7 4039212#8 192222119 390294217 390294215 390294218#1 390294218#2 390294216 41465217#1 41465217#2 41465217#4 -697946274#1 -697946274#0 -697946271 -123486075#5 -123486075#3 -123486075#2 -123486075#1 -123486075#0 -156382084#1 -156382084#0 -123487813#1 -123487813#0 -22715942#5 -22715942#4 -22715942#3 -22715942#2 -22715942#1 -22715942#0 17264368#0 17264368#1 17264368#2 116388712#0 116388712#1 116388712#2 116388712#3 116388712#4 116388712#5 116388712#6 683635970 17264452#0 17264452#1                        "></route></vehicle>
    <vehicle type="passenger1c" depart="720.00" id="a1c3"><route edges="4226887#0 4226887#2 4226887#3 4226887#4 83261038#1 83261038#2 83261038#3 83261038#4 83261038#5 204056323#0 204056323#1 204056323#2 204056323#3 4262852#0 4262852#1 62289714#0 62289714#1 34856551#0 83268804#0 83268804#2 67509820#0 67509820#1 39370830#2 39370830#3 39370830#5 84867918#0 84867918#1 84867918#2 84867918#3 23141139 34856443#0 34856443#1 4212168#2 4212168#3 4212168#4 34375603 -19518124 4414205#0 4414205#1                        "></route></vehicle>
    <vehicle type="passenger1c" depart="1200.00" id="a1c5"><route edges="636628592#0 164010795#0 164010795#1 164010795#2 4039514                        "></route></vehicle>
    <vehicle type="passenger1c" depart="1920.00" id="a1c8"><route edges="241561441 659944401#0 22870389#4 4217102#0 4217102#1 4217110#0 4217110#2 4217110#3 164010796 -4217074#1 -4217074#0 62997062 670863151 13772465 62522544#3 62522544#4 28503685#1 84796902#0 84796902#1 4214184#0 23290891#0 23290891#1 20107639 34856538 22926188#1 20107650#1 723723047 24689004#0 24689004#1 22617761#0 22617759#0 66486068#1 66486068#2 59848724#0 59848724#1 59848724#2 59848724#3                        "></route></vehicle>
    <vehicle type="passenger1c" depart="2160.00" id="a1c9"><route edges="34200316#0 34200316#1 204056323#0 204056323#1 204056323#2 204056323#3 204056318 204056326#0 204056326#1 541411378#0 541411378#1 541411378#2 34856561#0 34856561#1 34856561#2 204056329#0 204056329#1 204056329#3 204056329#4 204056329#5 625387391#0 625387391#1 204056319#1 204056319#2 123332686#0 123332686#1 123332686#2 123332686#3 625387390#0 625387390#1 625397236 204056332#0 204056332#1 204056332#2 204056332#3 204056332#4 204056332#5 22945487 22945486 192217201 85076173 286554 41466668#0 41466668#1 41466668#2 20445190 684104426 30172924 192222119 390294217 390294215 390294218#1 390294218#2 390294216 41465217#1 41465217#2 41465217#4 -697946274#1 -697946274#0 -697946271 -123486075#5 -123486075#3 -123486075#2 -123486075#1 -123486075#0 -156382084#1 -156382084#0 -123487813#1 -123487813#0 -22715942#5 -22715942#4 -22715942#3 -22715942#2 -22715942#1 -22715942#0 17264368#0 17264368#1 17264368#2 116388712#0 4574326 -83268806#0 -83268809#1 -294826461#1 -294826461#0                        "></route></vehicle>
    <vehicle type="passenger1c" depart="2640.00" id="a1c11"><route edges="636628592#0 636628592#2 455759570 455759573#0 455759573#1 455759573#3 455759573#4 455759573#5 455759573#6 22820300#1 -690374689 -22820207#1 -22820207#0 2114251 85076176 192222134 32484551#0 32484551#1 676755444#0 676755444#1 676755444#3 196524388#0 196524388#1 196524388#2 362880601#0 362880601#1 4039875#0 4039875#1 4039875#2 678644176#0 34679625#0 4040038#0 4040038#1 4040038#2 4040038#3 4040038#4 4039666#1 688388695#0 688388695#1 208079553#0 208079553#1 4039255 84789825 699887426#0 699887426#1 699887426#2 699887426#3 699887426#4 205547140#0 83261048#0 83261048#1 83261048#2 83261038#0 83261038#1 83261038#2 83261038#3 59848724#0 59848724#1 59848724#2 59848724#3                        "></route></vehicle>
    <vehicle type="passenger1c" depart="2880.00" id="a1c12"><route edges="15409614 50557197#0 17264368#2 116388712#0 4574326 -83268806#0 -83268809#1 28681308#0 28681308#1 28681308#2 28681308#4 20997884#0 20997884#1 20997884#2 4574384#0 4574368 -4574298#3 -4574298#1 -4574298#0 -4039898#1 -4039898#0 689385093#4                        "></route></vehicle>
    <vehicle type="passenger1c" depart="3120.00" id="a1c13"><route edges="4226887#0 22874870#2 21124917#1 21124959 30621996 176408881#1 192961821#0 192961821#2 192961821#4 192961821#5 192961821#7 123461259#0 123461259#2 123461259#3 123461259#4 123461259#6 123461259#7 123461259#8 517156289#0 517156289#1 517156289#3 53578234#0 53578234#2 53578234#3 352839550#0 352839550#1 352839550#2 517156355#0 284302748#0 284302748#3 -678522920#1 -678522920#0 516413082#0 516413082#1 361292434 516413084 361292433#0 361292433#1 -22973383#2 -22973383#1 -22973383#0 -83268801#4 -83268801#3 -83268801#2 -83268801#1 172312427#0 172312427#1 172312427#2 172312427#3 172312427#4 34322497#0 34322497#1 34322497#2 34322497#3 22940894#0 22940894#2 22940894#4 20997888#0 20997888#1 4574425 34237949#0 34237949#1 231317175 -83268806#0 10659447#0 10659447#1 10659447#2 4039537#0 221586670#0 221586670#1                        "></route></vehicle>
    <vehicle type="passenger1c" depart="3360.00" id="a1c14"><route edges="4262859#0 4212177#0 84796923#0 84796923#2 -67509823#1 -67509820#1 -67509820#0 -83268804#4 -83268804#1 -34856551#1 -62289714#1 -62289714#0 4039477 22617761#0 22617759#0 22617759#1 22617759#2 22617759#3 83261048#0 83261048#1 83261048#2 701119872 83261037#1 176408883#0 123461259#0 123461259#2 123461259#3 123461259#4 123461259#6 123461259#7 123461259#8 -545617466#3 -545617466#1 -545617466#0 -123324309#2 -34681705#2 -34681705#0 -678302494#1 -71221834#3 -484700579#1                        "></route></vehicle>
    <vehicle type="passenger1c" depart="3600.00" id="b1c0"><route edges="323605308#0 4039311#1 192961821#0 192961821#2 192961821#4 192961821#5 192961821#7 123461259#0 123461259#2 123461259#3 123461259#4 123461259#6 123461259#7 123461259#8 517156289#0 517156289#1 517156289#3 53578234#0 53578234#2 53578234#3 352839550#0 352839550#1 352839550#2 4039366 674945573 193751718 22715945#0 22715945#1 22715945#2 22715945#3 22715945#4 22715945#5 689385093#1 689385093#2 689385093#3 689385093#4                       "></route></vehicle>
    <vehicle type="passenger1c" depart="3870.00" id="b1c1"><route edges="241561441 659944401#0 659944401#1 632575501 674709202 13863524 4217159 632107019#0 632107019#1 4217173#0 4217173#1 4217160#1 -41467248 -22820300#1 -22820300#0 -455759573#5 -455759573#4 -455759573#3 -455759573#1 -455759573#0 83976055 -636628592#2 -636628592#1                       "></route></vehicle>
    <vehicle type="passenger1c" depart="4140.00" id="b1c2"><route edges="4226887#0 4226887#2 4226887#3 4226887#4 83261038#1 83261038#2 83261038#3 83261038#4 83261038#5 204056323#0 204056323#1 204056323#2 204056323#3 204056318 204056326#0 204056326#1 541411378#0 541411378#1 541411378#2 34856561#0 19780815#1 19780815#2 19780815#3 19780815#4 -4214185#1 -84796902#0 -28503685#1 -28503685#0 64002102 161231528 -13772465 4527637#0 4527637#1 83279327 22768377#1 197591095#0 197591095#1 37106047#0 37106047#1                       "></route></vehicle>
    <vehicle type="passenger1c" depart="4680.00" id="b1c4"><route edges="690204914#0 294813508 22957047#0 22957050 22957049 22957049-AddedOffRampEdge 22779290#0 31831455 521496926 123332692 28208667#0 28208667#1 28208667#2 28208667#3 28208667#5 28208667#6 28208667#8 28208667#9 28208667#10 28208667#11 699904544 41466669#0 41466669#1 32484551#0 32484551#1 676755444#0 676755444#1 676755444#3 196524388#0 196524388#1 196524388#2 362880601#0 362880601#1 671540713 4221403                       "></route></vehicle>
    <vehicle type="passenger1c" depart="5220.00" id="b1c6"><route edges="241561441 659944401#0 22870389#4 4217102#0 4217102#1 589489439#1 98668721#0 -4217113#1                       "></route></vehicle>
    <vehicle type="passenger1c" depart="5490.00" id="b1c7"><route edges="34200316#0 34200316#1 204056323#0 204056323#1 204056323#2 204056323#3 204056318 204056326#0 204056326#1 541411378#0 541411378#1 541411378#2 34856561#0 19780815#1 19780815#2 19780815#3 19780815#4 -4214185#1 -84796902#0 -28503685#1 -28503685#0 64002102 161231528 -13772465 4527637#0 4527637#1 83279327 22768377#1 197591095#0 197591095#1 37106047#0 37106047#1                       "></route></vehicle>
    <vehicle type="passenger1c" depart="5760.00" id="b1c8"><route edges="4217196#0 4217196#1 22870389#0 22870389#1 22870389#2 22870389#3 22870389#4 4217102#0 4217102#1 589489439#1 98668721#0 -4217113#1                       "></route></vehicle>
    <vehicle type="passenger1c" depart="6030.00" id="b1c9"><route edges="4216673#0 4216673#1 22767967#0 22767967#1 84867923#0 84867923#1 204056336#0 204056336#1 22768377#1 197591095#0 197591095#1 37106047#0 37106047#1                       "></route></vehicle>
    <vehicle type="passenger1c" depart="6300.00" id="b1c10"><route edges="34200316#0 68761009 21507816 59848724#1 59848724#2 22874870#0 59848726#3                       "></route></vehicle>
    <vehicle type="passenger1c" depart="7110.00" id="b1c13"><route edges="-430567574 22982503#0 22982503#1 521481261 563754444 35097256#0 35097256#1 123332692 28208667#0 28208667#1 28208667#2 28208667#3 28208667#5 28208667#6 28208667#8 28208667#9 28208667#10 28208667#11 699904544 286554 41466668#0 41466668#1 41466668#2 20445190 684104426 376214217#0 376214217#1 376214217#2 376214217#3 376214217#4 376214217#5 376214217#6 376214217#7 376214217#8 465426977 22956648 45180810#1 45180810#3 45180810#4 45180810#5 45180810#6 22956802                       "></route></vehicle>
    <vehicle type="passenger1c" depart="7200.00" id="c1c0"><route edges="63745637#0 63745637#2 84867923#0 84867923#1 204056336#0 204056336#1 34856565 4217074#0 4217074#1 4217070 702655624 4216818#2 4417864#0 4417864#1 639667209#4 4527633#0 72240230#0 204056319#2 123332686#0 123332686#1 123332686#2 123332686#3 625387390#0 625387390#1 625397236 204056332#0 204056332#1 204056332#2 204056332#3 204056332#4 204056332#5 22945487 22945486 192217201 85076173 286554 41466668#0 41466668#1 41466668#2 20445190 684104426 376214217#0 376214217#1 376214217#2 376214217#3 376214217#4 376214217#5 376214217#6 376214217#7 376214217#8 465426977 22956648 45180810#1 45180810#3 45180810#4 45180810#5 45180810#6 45180810#7 45180810#8 45180810#9                      "></route></vehicle>
    <vehicle type="passenger1c" depart="7500.00" id="c1c1"><route edges="4217113#0 197591095#1 37106047#0 84867919#0 84867919#1 84867923#0 84867923#1 204056336#0 204056336#1 34856565 4217074#0 4217074#1 4217070 702655624 4216818#2 4417864#0 4417864#1 639667209#4 4527633#0 72240230#0 204056319#2 123332686#0 123332686#1 123332686#2 123332686#3 625387390#0 625387390#1 625397236 204056332#0 204056332#1 204056332#2 204056332#3 204056332#4 204056332#5 22945487 22945486 192217201 85076173 286554 41466668#0 41466668#1 41466668#2 20445190 684104426 376214217#0 376214217#1 376214217#2 376214217#3 376214217#4 376214217#5 376214217#6 376214217#7 376214217#8 465426977 22956648 45180810#1 45180810#3 45180810#4 45180810#5 45180810#6 45180810#7 45180810#8 45180810#9                      "></route></vehicle>
    <vehicle type="passenger1c" depart="7800.00" id="c1c2"><route edges="484700579#0 71221834#1 678302494#0 34681705#0 34681705#1 123324309#1 545616651 545617466#1 545617466#2 517156289#0 517156289#1 517156289#3 53578234#0 53578234#2 53578234#3 352839550#0 352839550#1 352839550#2 517156355#0 138031419 4039550 290820396#0 290820396#1 290820396#6 4039813 20104602 23738286#0 40067720 698217134 20104465#0 20104465#1 123332686#0 123332686#1 123332686#2 123332686#3 625387390#0 625387390#1 -66098063#4 -66098063#3 -66098063#2 -66098063#1 -66098063#0 -506445446#4 -506445446#3 -506445446#1 -506445446#0 -313695844#5                      "></route></vehicle>
    <vehicle type="passenger1c" depart="8400.00" id="c1c4"><route edges="4263218#0 4263218#1 4263218#3 4263218#4 54059926 54059925#1 54059925#2 34681705#0 34681705#1 123324309#1 545616651 545617466#1 545617466#2 517156289#0 517156289#1 517156289#3 -53574179 53574163#0 557297166#1 683347674 64051397 53570788 20326518 20326523 4039255 22700860 84789823#0 84789823#1 733476802 19780809#0 19780809#1 34676749 625390088 4216820 34856532 23170629#0 4216823 4214188#0 4214188#1 64002102 161231528 -13772465 4527637#0 4527637#1 83279327 -204056336#1 -204056336#0 -594326312 -84867923#0 -63745637#2 -63745637#1                      "></route></vehicle>
    <vehicle type="passenger1c" depart="8700.00" id="c1c5"><route edges="4262859#0 4212177#0 84796923#0 -706580240#3 -706580240#1 -706580240#0 -41739322#1 -673579910#2 -673579910#1 -673579909#2 -673579909#1 -84796902#5 -84796902#0 -28503685#1 -28503685#0 64002102 161231528 -13772465 4527637#0 4527637#1 63002448#0 4217074#0 4217074#1 164010801#0 164010801#1 164010801#2 164010801#3 634846215#0 632575500 83279331#0 4217101 632575504 4217192#0 4217192#1 557906980#0 557906980#1 59851630                      "></route></vehicle>
    <vehicle type="passenger1c" depart="9000.00" id="c1c6"><route edges="690204914#0 294813508 22957047#0 22957050 22957049 22957049-AddedOffRampEdge 22779290#0 31831455 521496926 123332692 28208667#0 28208667#1 28208667#2 28208667#3 28208667#5 28208667#6 28208667#8 28208667#9 28208667#10 28208667#11 699904544 41466669#0 41466669#1 32484551#0 32484551#1 676755444#0 676755444#1 676755444#3 196524388#0 196524388#1 196524388#2 362880601#0 362880601#1 4039875#0 4039875#1 4039875#2 678644176#0 34679625#0 4040038#0 4040038#1 4040038#2 4040038#3 4040038#4 4039666#1 688388695#0 688388695#1 208079553#0 208079553#1 4039255 84789825 699887426#0 699887426#1 699887426#2 699887426#3 699887426#4 205547140#0 83261048#0 83261048#1 83261048#2 83261038#0 83261038#1 83261038#2 83261038#3 59848724#0 59848724#1 59848724#2 59848724#3                      "></route></vehicle>
    <vehicle type="passenger1c" depart="9300.00" id="c1c7"><route edges="34237938#0 34237938#1 548171415#0 548171415#1 60208997#0 60208997#1 60208997#2 20997884#1 20997884#2 4574384#0 4574368 56257421#0 56257421#1 56257421#3 56257421#4 56257421#5 56257421#9 56257421#10 20859602#0 20859602#1 20859602#2 20859602#3 20859602#4 20859602#5 681709632#1 41739090 4040099#0 138031419 4039550 290820396#0 290820396#1 290820396#6 4039813 20104602 23738286#0 40067720 698217134 20104465#0 20104465#1 589489443#0 589489443#1 589489442#0 589489442#1 589489442#2 589489441#0 589489440#0 589489439#0 589489439#1 589489439#2 589489439#3 589489439#4 37106047#0 37106047#1                      "></route></vehicle>
    <vehicle type="passenger1c" depart="9900.00" id="c1c9"><route edges="4226887#0 4226887#2 4226887#3 4226887#4 83261038#1 83261038#2 83261038#3 83261038#4 83261038#5 204056323#0 204056323#1 204056323#2 204056323#3 204056318 204056326#0 204056326#1 541411378#0 541411378#1 541411378#2 34856561#0 34856561#1 34856561#2 204056329#0 204056329#1 204056329#3 204056329#4 204056329#5 625387391#0 625387391#1 204056319#1 204056319#2 123332686#0 123332686#1 123332686#2 123332686#3 625387390#0 625387390#1 97602212#0 97602212#1 97602212#2 97602212#3 174767744 4217170#0 4217170#1 4217170#2 4217170#3 506445447 22880026 164010797#0 164010797#1 164010797#2                      "></route></vehicle>
    <vehicle type="passenger1c" depart="10200.00" id="c1c10"><route edges="690204914#0 294813508 22957047#0 22957050 22957049 22957049-AddedOffRampEdge 22779290#0 31831455 521496926 123332692 28208667#0 28208667#1 28208667#2 28208667#3 28208667#5 28208667#6 28208667#8 28208667#9 28208667#10 28208667#11 699904544 41466669#0 41466669#1 32484551#0 32484551#1 676755444#0 676755444#1 676755444#3 196524388#0 196524388#1 196524388#2 362880601#0 362880601#1 4039875#0 4039875#1 4039875#2 678644176#0 34679625#0 4040038#0 4040038#1 4040038#2 4040038#3 4040038#4 233487384#0 233487384#1 22706126#0 19780769 22706102#0 22706102#1 22706102#2 22706102#3 20107406#1 20107406#2 20107557 34676749 625390088 4216820 34856532 23170629#0 23170629#1 23170629#2 84796902#0 84796902#1 673579909#0 673579909#2 673579910#0 673579910#2 41739322#0 706580241 706584280 84867918#1 84867918#2 84867918#3 23141139 34779025#0 34779025#1                      "></route></vehicle>
    <vehicle type="passenger1c" depart="10500.00" id="c1c11"><route edges="15409614 50557197#0 -17264368#1 -17264368#0 22715942#0 22715942#1 22715942#2 22715942#3 22715942#4 22715942#5 123487813#0 123487813#1 156382084#0 156382084#1 123486075#0 123486075#1 123486075#2 123486075#3 123486075#4 697946271 505935716#0 505935716#1 390294220 41463245#0 41463245#1 41465215#0 55338728#0 55338728#1 55338728#2 34678852#0 34678852#1 171879421#0 171879421#1 569948204#0 569948204#1 569948204#2 569948204#3 569948204#4 4527645#0 4527645#2 4527645#3 4527645#4 4527645#5 569948205#0 569948205#1 569948205#2 40037023#0 40037023#2 40037023#3 545612376#0 545612376#1 123324299#1 123324299#2 694641603#0 694641603#1 694641603#3 693307446#0 693307446#1 693307446#3 355565768#0 355565768#2 164094068#1 164094069#0 164094069#2 377629005#0 377629005#2 162384242#0 162384242#2 162384242#4 162384242#5 162384242#7 162384242#11 25485929 693014367#0                      "></route></vehicle>
    <vehicle type="passenger1c" depart="10800.00" id="d1c0"><route edges="323605308#0 4039311#1 192961821#0 192961821#2 192961821#4 192961821#5 192961821#7 123461259#0 123461259#2 123461259#3 123461259#4 123461259#6 123461259#7 123461259#8 517156289#0 517156289#1 517156289#3 53578234#0 53578234#2 53578234#3 352839550#0 352839550#1 352839550#2 517156355#0 138031419 4039550 290820396#0 290820396#1 290820396#6 4039813 20104602 23738286#0 40067720 698217134 20104465#0 20104465#1 589489443#0 589489443#1 589489442#0 589489442#1 589489442#2 589489441#0 634846215#0 632575500 83279331#0 4217101 632575504 4217192#0 4217192#1 557906980#0 557906980#1 59851630                     "></route></vehicle>
    <vehicle type="passenger1c" depart="11070.00" id="d1c1"><route edges="636628592#0 164010795#0 164010795#1 164010795#2 164010795#3 59851695#0 59851695#1 59851695#2 456259120#1 456259120#2 72224015 22870389#0 22870389#1 22870389#2 22870389#3 22870389#4 4217102#0 4217102#1 589489439#1 589489439#2 589489439#3 589489439#4 37106047#0 84867919#0 84867919#1 -22767967#1 -22767967#0 -22767965#2 -22767965#1 -22767965#0 4216674#0 4216674#1 -4216670 23141139 34856443#0 34856443#1 4212168#2 4212168#3 4212168#4 34375603 -19518124 4414205#0 4414205#1                     "></route></vehicle>
    <vehicle type="passenger1c" depart="11340.00" id="d1c2"><route edges="-22956888#1 191714991#3 22957050 22957049 22957049-AddedOffRampEdge 22779290#0 31831455 521496926 123332692 28208667#0 28208667#1 28208667#2 28208667#3 28208667#5 28208667#6 28208667#8 28208667#9 28208667#10 28208667#11 699904544 41466669#0 41466669#1 32484551#0 32484551#1 676755444#0 676755444#1 676755444#3 196524388#0 196524388#1 196524388#2 362880601#0 362880601#1 4039875#0 4039875#1 4039875#2 678644176#0 34679625#0 4040038#0 4040038#1 4040038#2 4040038#3 4040038#4 4039666#1 688388695#0 688388695#1 208079553#0 208079553#1 4039255 84789825 699887426#0 699887426#1 699887426#2 699887426#3 699887426#4 205547140#0 83261048#0 83261048#1 83261048#2 83261038#0 83261038#1 59848726#0 59848726#1 59848726#2 59848726#3                     "></route></vehicle>
    <vehicle type="passenger1c" depart="11610.00" id="d1c3"><route edges="636628592#0 636628592#2 455759570 455759573#0 455759573#1 455759573#3 455759573#4 455759573#5 455759573#6 22820300#1 -690374689 -22820207#1 -22820207#0 2114251 85076176 192222134 32484551#0 32484551#1 676755444#0 676755444#1 676755444#3 196524388#0 196524388#1 196524388#2 362880601#0 362880601#1 4039875#0 4039875#1 4039875#2 678644176#0 34679625#0 4040038#0 4040038#1 4040038#2 4040038#3 4040038#4 4039666#1 688388695#0 688388695#1 208079553#0 208079553#1 4039255 84789825 699887426#0 699887426#1 699887426#2 699887426#3 699887426#4 205547140#0 83261048#0 83261048#1 83261048#2 83261038#0 83261038#1 59848726#0 59848726#1 59848726#2 59848726#3                     "></route></vehicle>
    <vehicle type="passenger1c" depart="11880.00" id="d1c4"><route edges="148498348 159488121#4 35081974#0 35081974#1 35081974#2 35081974#3 20859602#3 20859602#4 20859602#5 681709632#1 41739090 4040099#0 138031419 4039550 290820396#0 290820396#1 290820396#6 4039813 20104602 4040038#0 4040038#1 4040038#2 4040038#3 4040038#4 4039666#1 688388695#0 688388695#1 208079553#0 208079553#1 4039255 84789825 699887426#0 699887426#1 699887426#2 699887426#3 699887426#4 205547140#0 83261048#0 83261048#1 83261048#2 83261038#0 83261038#1 59848726#0 59848726#1 59848726#2 59848726#3                     "></route></vehicle>
    <vehicle type="passenger1c" depart="12150.00" id="d1c5"><route edges="4216673#0 4216673#1 -22767965#2 -22767965#1 -22767965#0 4216674#0 4216674#1 -4216670 23141139 34779025#0 34779025#1                     "></route></vehicle>
    <vehicle type="passenger1c" depart="12420.00" id="d1c6"><route edges="323605308#0 4039311#1 192961821#0 192961821#2 192961821#4 192961821#5 192961821#7 123461259#0 123461259#2 123461259#3 123461259#4 123461259#6 123461259#7 123461259#8 517156289#0 517156289#1 517156289#3 53578234#0 53578234#2 53578234#3 352839550#0 352839550#1 352839550#2 517156355#0 138031419 4039550 290820396#0 290820396#1 290820396#6 4039813 20104602 23738286#0 40067720 698217134 20104465#0 20104465#1 123332686#0 123332686#1 123332686#2 123332686#3 625387390#0 625387390#1 -66098063#4 -66098063#3 -66098063#2 34322419#7 34322419#8 -41467248 -22820300#1 -22820300#0 -455759573#5 -455759573#4 -455759573#3 -455759573#1 -455759573#0 83976055 -636628592#2 -636628592#1                     "></route></vehicle>
    <vehicle type="passenger1c" depart="12690.00" id="d1c7"><route edges="34237938#0 34237938#1 22940912#6 22940912#7 22940912#8 34322528#0 34322528#1 -116388712#1 -116388712#0 -17264368#2 -17264368#1 -17264368#0 22715942#0 22715942#1 22715942#2 22715942#3 22715942#4 22715942#5 123487813#0 123487813#1 156382084#0 156382084#1 123486075#0 123486075#1 123486075#2 123486075#3 123486075#4 697946271 697946274#0 697946274#1 506007807#0 506007807#1 56104231#0 56104231#1 56104231#2 574681654#0 22956648 45180810#1 45180810#3 45180810#4 45180810#5 45180810#6 22956802                     "></route></vehicle>
    <vehicle type="passenger1c" depart="12960.00" id="d1c8"><route edges="4216673#0 4216673#1 22767967#0 22767967#1 84867923#0 84867923#1 204056336#0 204056336#1 34856565 62997063 62997064#1 62997064#3 683979636#1 102440303 413069094 66320306#0 66320306#1 66320306#3 66320306#4 233477997 4039152#1 25344944#0 25344944#1 123461253#0 123461253#1 123461253#7 64609511#0 4039366 169128627 600969582 499783624 694641603#0 694641603#1 694641603#3 693307446#0 693307446#1 693307446#3 355565768#0 355565768#2 164094068#1 164094069#0 164094069#2 377629005#0 377629005#2 162384242#0 162384242#2 162384242#4 162384242#5 162384242#7 162384242#11 25485929 693014367#0                     "></route></vehicle>
    <vehicle type="passenger1c" depart="13770.00" id="d1c11"><route edges="4226887#0 4226887#2 4226887#3 4226887#4 83261038#1 83261038#2 83261038#3 83261038#4 83261038#5 204056323#0 204056323#1 204056323#2 204056323#3 4262852#0 4262852#1 62289714#0 62289714#1 34856551#0 83268804#0 83268804#2 67509820#0 67509820#1 39370830#2 39370830#3 39370830#5 84867918#0 84867918#1 84867918#2 84867918#3 4216670 84867910#0 84867910#1                     "></route></vehicle>
    <vehicle type="passenger1c" depart="14040.00" id="d1c12"><route edges="323605308#0 4039311#1 192961821#0 192961821#2 192961821#4 192961821#5 192961821#7 123461259#0 123461259#2 123461259#3 123461259#4 123461259#6 123461259#7 123461259#8 517156289#0 517156289#1 517156289#3 -53574179 53574163#0 557297166#1 683347674 64051397 53570788 20326518 20326523 4039255 84789825 699887426#0 699887426#1 699887426#2 699887426#3 699887426#4 205547140#0 83261048#0 83261048#1 83261048#2 83261038#0 83261038#1 83261038#2 83261038#3 59848724#0 59848724#1 59848724#2 59848724#3                     "></route></vehicle>
    <vehicle type="passenger1c" depart="14400.00" id="e1c0"><route edges="59854542#0 84867919#1 84867923#0 84867923#1 204056336#0 204056336#1 34856565 4217074#0 4217074#1 4217070 702655624 4216818#2 4417864#0 4417864#1 639667209#4 4527633#0 72240230#0 204056319#2 123332686#0 123332686#1 123332686#2 123332686#3 625387390#0 625387390#1 625397236 204056332#0 204056332#1 204056332#2 204056332#3 204056332#4 204056332#5 22945487 22945486 192217201 85076173 286554 41466668#0 41466668#1 41466668#2 20445190 684104426 376214217#0 376214217#1 376214217#2 376214217#3 376214217#4 376214217#5 376214217#6 376214217#7 376214217#8 465426977 22956648 45180810#1 45180810#3 45180810#4 45180810#5 45180810#6 22956802                    "></route></vehicle>
    <vehicle type="passenger1c" depart="14760.00" id="e1c2"><route edges="-84867910#1 -84867910#0 -4216674#1 -4216674#0 22767965#0 22767965#1 22767965#2 22767967#0 22767967#1 84867923#0 84867923#1 204056336#0 204056336#1 22768377#1 197591095#0 197591095#1 37106047#0 37106047#1                    "></route></vehicle>
    <vehicle type="passenger1c" depart="14940.00" id="e1c3"><route edges="23981905#0 23981905#1 23981905#2 4574298#0 4574298#1 4574298#3 56257421#0 56257421#1 56257421#3 56257421#4 56257421#5 18517723#0 18517723#1 18517723#2 18517723#3 18517723#4 18517723#5 22940894#0 22940894#2 22940894#4 20997888#0 20997888#1 4574425 34237949#0 34237949#1 231317175 -83268806#0 10659447#0 10659447#1 10659447#2 683635970 17264452#0 17264452#1                    "></route></vehicle>
    <vehicle type="passenger1c" depart="15120.00" id="e1c4"><route edges="313695844#0 59851695#0 59851695#1 59851695#2 456259120#1 456259120#2 72224015 22870389#0 22870389#1 22870389#2 22870389#3 22870389#4 4217102#0 4217102#1 589489439#1 589489439#2 589489439#3 589489439#4 37106047#0 84867919#0 84867919#1 -22767967#1 -22767967#0 -22767965#2 -22767965#1 -22767965#0 4216671#0 4216671#1                    "></route></vehicle>
    <vehicle type="passenger1c" depart="15480.00" id="e1c6"><route edges="17249305 17249298 -162384238#1 -162384238#0 -563926537#1 -563926537#0 -521338709#3 -521338709#2 -521338709#1 -521338709#0 517156285#0 517156285#1 516413083#0 516413083#1 516413083#2 516413083#3 516413083#4 678522920#0 678522920#1 -474063681 -22973459 53604499#0 53604499#1 290820396#0 290820396#1 290820396#6 4039813 20104602 23738286#0 40067720 698217134 20104465#0 20104465#1 123332686#0 123332686#1 123332686#2 123332686#3 625387390#0 625387390#1 -66098063#4 -66098063#3 -66098063#2 -66098063#1 -66098063#0 -506445446#4 -506445446#3 -506445446#1 -506445446#0 -313695844#5                    "></route></vehicle>
    <vehicle type="passenger1c" depart="15660.00" id="e1c7"><route edges="56995106 22940912#4 22940912#5 548171415#0 548171415#1 60208997#0 60208997#1 60208997#2 20997884#1 20997884#2 4574384#0 4574368 56257421#0 56257421#1 56257421#3 56257421#4 56257421#5 56257421#9 56257421#10 20859602#0 20859602#1 20859602#2 20859602#3 20859602#4 20859602#5 681709632#1 41739090 4040099#0 138031419 4039550 290820396#0 290820396#1 290820396#6 4039813 20104602 4040038#0 4040038#1 4040038#2 4040038#3 4040038#4 4039666#1 688388695#0 688388695#1 208079553#0 208079553#1 4039255 84789825 699887426#0 699887426#1 699887426#2 699887426#3 699887426#4 205547140#0 83261048#0 83261048#1 83261048#2 83261038#0 83261038#1 83261038#2 83261038#3 59848724#0 59848724#1 59848724#2 59848724#3                    "></route></vehicle>
    <vehicle type="passenger1c" depart="15840.00" id="e1c8"><route edges="4226887#0 4226887#2 4226887#3 4226887#4 83261038#1 83261038#2 83261038#3 83261038#4 83261038#5 204056323#0 204056323#1 204056323#2 204056323#3 204056318 204056326#0 204056326#1 541411378#0 541411378#1 541411378#2 34856561#0 34856561#1 34856561#2 204056329#0 204056329#1 204056329#3 204056329#4 204056329#5 625387391#0 625387391#1 204056319#1 204056319#2 123332686#0 123332686#1 123332686#2 123332686#3 625387390#0 625387390#1 97602212#0 97602212#1 97602212#2 97602212#3 174767744 4217170#0 4217170#1 4217170#2 4217170#3 506445447 22880026 164010797#0 164010797#1 4217169#0 4217169#1 4217169#2 -59851736                    "></route></vehicle>
    <vehicle type="passenger1c" depart="16020.00" id="e1c9"><route edges="15409614 50557197#0 17264368#2 116388712#0 4574326 -83268806#0 -83268809#1 28681308#0 28681308#1 28681308#2 28681308#4 20997884#0 20997884#1 20997884#2 4574384#0 4574430#3 4574430#4 4574430#5 4574430#6 4574430#7                    "></route></vehicle>