<routes>
<vType maxSpeed="50.00" probability="0.20" color="204,204,204" accel="3.0" decel="4.1" vClass="passenger" emergencyDecel="4.5" length="4.50" minGap="1.50" speedFactor="normc(1.00,0.10,0.20,2.00)" sigma="0.5" id="passenger2a"/>
    <vehicle type="passenger2a" depart="0.00" id="a2a0"><route edges="60251895 32460618 4433351 62073307 4399103#1 326272762#1 256078749 32340289#0 32340289#1 385816799#0 4396711#0 91395028 328972796#0 328972796#1 328972796#2 329286304#0 329286304#1 -4441825#3 4441829                        "></route></vehicle>
    <vehicle type="passenger2a" depart="53.33" id="a2a2"><route edges="47356744 178988631 156729446 136776464 156725927 156517081 156517067 328847919 -4705775#0 -227562699#4 -227562699#3 -227562699#2 -227562699#1 -227562699#0                        "></route></vehicle>
    <vehicle type="passenger2a" depart="80.00" id="a2a3"><route edges="-4591087#1 -4591089#3 -4591089#2 -4591077#1 -4591077#0 326272764#0 -4591070#3 -4591070#1 62073307 4399103#1 51732984#1 328972785 104728237#0 104728237#1 104728237#2 104728237#3 289112669#0 289112669#1 289112669#2 328972805#0 328972805#1 132314084#0 132314084#1 149149062 386257052 328972789#0 328972789#2 328972789#4 328972789#5 4432380#0 4432380#1 -4432378#2 -4432378#1 4432383#0 4432383#1 -4432385#0                        "></route></vehicle>
    <vehicle type="passenger2a" depart="106.67" id="a2a4"><route edges="-596568012#1 -25116776#8 -25116776#6 -25116776#4 -25116776#3 -25116776#2 -25116776#0 -431726762#1 220173775#1 431726761 265319793 116353640#0 116353640#1 116353640#2 116353640#3 38820340#1 38820340#3 38820340#5 -288248504 288248505#0 288248505#1 293803042#2 288671398#0 288671398#1 -262771814#2 -262771814#1 -293803044#1 -293803044#0 -304505287#0 -23076776#2 -23076776#1 -23076776#0 -118254791#2 -435017532#4 -435017532#3 -435017532#2 -435017532#1 -85076013#3 -85076013#2 -85076013#0 -66021171#4 -66021171#2 -66021171#1 -66021171#0 -613501578 -60302077#2 -60302077#1 -60302077#0 -520786903 -419882020 -87059422#0 62073787 87059432 64052774 32460618 4433351 62073307 4399103#1 326272762#1 256078749 32340289#0 32340289#1 385816799#0 147148100 329286231 -466325282 -180166725 -482265404 463983939#0 89972201#1 329286297 329286300 4442548#1 4442548#2 128238281#1                        "></route></vehicle>
    <vehicle type="passenger2a" depart="186.67" id="a2a7"><route edges="4627939#0 4627939#1 4627939#2 4627939#3 4627939#4 4627939#5 4627939#6 186702383                        "></route></vehicle>
    <vehicle type="passenger2a" depart="213.33" id="a2a8"><route edges="60251895 32460618 151288342 156724778 463982793#1 62115073#1 444240350 156517055 156729447 4396732                        "></route></vehicle>
    <vehicle type="passenger2a" depart="240.00" id="a2a9"><route edges="252716209 -4627984#9 -4627984#8 -4627984#7 -4627984#6 -4627984#4 -458123179#4 -458123179#3 -458123179#2 -458123179#1 -241955498#5 -241955498#4 -241955498#3 -241955498#2 -241955498#1 133039163#0 82433538 133039154#0 110263753#0 110263753#2 110263757#0 110263757#1 329163388#1 329163386 329163390 38820724#1 38820724#3 4427342#0 4427342#1 4427342#2 339934062 32202364 -164209811#4 -164209811#3 -164209811#2 -164209811#1 61319337#1 61319337#3 61319337#4 329163413 252378478#0 252378478#1 177172368 329163391#0 329163391#2 329163391#3                        "></route></vehicle>
    <vehicle type="passenger2a" depart="266.67" id="a2a10"><route edges="67324778#0 67324778#1 67324778#2 67324778#3 67324778#4 67324778#5 67324778#6 67324778#7 67324778#8 67324778#9 67324778#10 -35156858#1 -444098637 -220173782#1 -317794132 -68034417 68034415#0 68034415#1 68034423 68034419 23723683 4453203#0 4453203#1 -248783828 -4453202 -329163401 -4453205 -110263759#1 119796455#1 727108696 329163399 437045173#1 437045173#2 437045173#3 437045173#4 437045173#6 329163400#1 82433536 329163402#0 329163402#2 248963104#1 119810553#1 119810553#2 119810553#3 -539782979 -557263984#1 -557263984#0 -119810554#4 -119810554#3 -119810554#1 -119810554#0 -557263987#1 -557263990#2 -557263990#1 -557263990#0 4611369#0 4611369#1 4611369#2 4611369#3 4611369#5 4611369#10 4611369#11 4620317 4620318#0 4611371#0 4611403#0 4611403#1 4705777#3                        "></route></vehicle>
    <vehicle type="passenger2a" depart="320.00" id="a2a12"><route edges="-24645209 -23019181#2 -23019181#1 -23019181#0 419882019 60302077#0 60302077#1 60302077#2 540214008 66021171#0 66021171#1 66021171#2 66021171#4 85076013#0 85076013#2 85076013#3 435017532#1 435017532#2 435017532#3 435017532#4 118254791#1 118254791#4 23076776#1 23076776#2 304505287#0 -472350008#1 -472350008#0 -25745025#3 -25745025#2 -25745025#0 266925780#0 266925780#1 266925780#2 32040289#0 419882009#0 419882009#1 23076778#1 397626752#0 -22819691#0 -64942328 -22819689#1 -22819689#0 -22819690 -397626745#1 -397626745#0 85660425#1 85660425#2 672889050#0 672889050#1 672889050#2 4627977#0 207801868                        "></route></vehicle>
    <vehicle type="passenger2a" depart="346.67" id="a2a13"><route edges="60251895 32460618 4433351 62073307 4399103#1 51732984#1 328972785 104728237#0 104728237#1 104728237#2 104728237#3 289112669#0 289112669#1 289112669#2 328972805#0 328972805#1 149149061 34074908#0 34074908#1 34074908#2 34074908#3 34074908#4                        "></route></vehicle>
    <vehicle type="passenger2a" depart="400.00" id="a2a15"><route edges="47356744 178988631 156729446 156517058 179060432 179061345#1 4399101#0 4399101#1 329286271 53376240 482265404 4399100 329286233 329286232#0 4395415#0 4395415#1 4395415#2 328972784#0 328972784#1 325996410 328972785 104728237#0 104728237#1 104728237#2 104728237#3 289112669#0 289112669#1 289112669#2 328972805#0 328972805#1 132314084#0 132314084#1 149149062 -453800738#1 -453800738#0 -454027479 -4432374#5 -4432374#4 -4432374#3 -4432374#2 -4432374#0 -4432390#4 4432392#0 4432392#1                        "></route></vehicle>
    <vehicle type="passenger2a" depart="426.67" id="a2a16"><route edges="-596568012#1 -25116776#8 -25116776#6 -25116776#4 -25116776#3 -25116776#2 -25116776#0 -431726762#1 220173775#1 431726761 265319793 116353640#0 116353640#1 116353640#2 116353640#3 38820340#1 38820340#3 38820340#5 -288248504 288248505#0 288248505#1 293803042#2 288671398#0 288671398#1 -262771814#2 -262771814#1 -293803044#1 -293803044#0 -304505287#0 -23076776#2 -23076776#1 -23076776#0 -118254791#2 -435017532#4 -435017532#3 -435017532#2 -435017532#1 -85076013#3 -85076013#2 -85076013#0 -66021171#4 -66021171#2 -66021171#1 -66021171#0 -613501578 -60302077#2 -60302077#1 -60302077#0 -520786903 -419882020 -87059422#0 62073787 87059432 64052774 32460618 4433351 62073307 4399103#1 51732984#1 328972785 104728237#0 104728237#1 104728237#2 104728237#3 289112669#0 289112669#1 289112669#2 328972805#0 328972805#1 132314084#0 132314084#1 149149062 386257052 328972789#0 328972789#2 4432379#0 -4432376#1 380773482                        "></route></vehicle>
    <vehicle type="passenger2a" depart="453.33" id="a2a17"><route edges="-71313100#2 -71313100#1 -71313100#0 79085676#1 79085676#2 79085676#3 79085676#4 79085676#5 79085676#6 66990425#0 66990425#1 37833219#1 62072527#0 62072527#1 4406216 59164973 79085682 32089657#0 32089657#1 -64052827#0 -64052828#1 -64052828#0 -32040298#3 -32040298#2 -32040298#1 -292766807#0 -278544265 -219662934#0 288248508#0 288248508#1 293803042#0 288248506#0 288248506#1 288248504 243480577 -38820340#3 -38820340#1 -116353640#3 -116353640#2 -116353640#1 -116353640#0 -265319793 -431726761 -220173775#1 -220173782#1 -317794132 -68034417 68034415#0 68034415#1 68034423 68034419 23723683 4453203#0 4453203#1 -248783828 -4453202 -329163401 -4453205 -110263759#1 119796455#1 727108696 329163399 437045173#1 437045173#2 437045173#3 437045173#4 437045173#6 329163400#1 82433536 329163402#0 329163402#2 4427330#0 4427330#1 329163395 103667851 329163422#0 329163422#1 329163422#2 4624428                        "></route></vehicle>
    <vehicle type="passenger2a" depart="506.67" id="a2a19"><route edges="4609572#0 -4609571#3 -4609571#2 -4609571#1 -4609571#0 -4609558#10 -4609558#8 -4609558#7 -4609558#6 -4609558#5 -4609558#4 -4609558#3 -4609558#2 -4609558#1 -4609558#0 531527811#12 531527811#13 -4611371#4 -4611371#3 -4611371#2 -4611371#1 -4611371#0 -4620318#0 -131644781 -4611369#11 -4611369#10 -4611369#5 -4611369#3 -4611369#2 -4611369#1 -4611369#0 557263990#0 557263990#1 557263990#2 557263987#1 557263987#2 119810554#1 119810554#3 119810554#4 557263984#0 557263984#1 539782979 -460052912#1 -561501782 -52503498#1 -52503498#0 -285590636#1 -285590636#0 -285590635#1 -285590635#0 -131752806#1 -131752806#0 -97166541#4 -97166541#3 -97166541#0 172207939#3 172207939#5 199402826#0 199402826#1 199402826#2 199402826#3 199402826#4 4628048                        "></route></vehicle>
    <vehicle type="passenger2a" depart="533.33" id="a2a20"><route edges="-399370052 -399370048 -677322184#1 677322182 657044730#1 657044730#2 677745868#0 677745868#1 4386508#1 641535062#0 641535062#1 653817485#0 653817485#1 531527813 138011859#0 458648634#1 458651454#0 458651454#1 639360272#1 639360276#0 639360276#1 639360276#2 639360276#3 639360257 669403496 157933010#0 157933010#1 157933010#2 458648630#0 458648630#1 458648630#2                        "></route></vehicle>
    <vehicle type="passenger2a" depart="560.00" id="a2a21"><route edges="47356744 178988631 156729446 136776464 156725930 328847936 67486819 67486821 67486811 4399096 262649859 262649858 156517055 156729447 4396732                        "></route></vehicle>
    <vehicle type="passenger2a" depart="586.67" id="a2a22"><route edges="-4441817#2 -4441817#1 -4441817#0 329286257 329286255 329286256#0 329286256#1 -4441825#3 -4441825#1 -4441825#0 -329286300 -329286297 -457627968 4442538#1 329286299 180166725 463981127 4442537 156724778 463982793#1 62115073#1 62114271 156517085 156725931 4399104#0 4399104#1 25634944 104043216 659223504 521057237#1 659226747 653971212 -653971214 -521057238#1 653965403#0 653965403#1 641535064#0 641535064#1 657044730#0 -677322182 677322184#1 399370048 399370052                        "></route></vehicle>
    <vehicle type="passenger2a" depart="613.33" id="a2a23"><route edges="-597436066 -4591077#1 -4591077#0 107207243 4387602#0 4387602#1 4387602#2 4387602#3 4395414 439208434 328962569#0 328962569#1 328962569#2 34706874#0 34706874#1 34706874#2 241955504#0 241955504#1 241955504#2 328962564#0 328962564#1 -328962563#1 -328962563#0 -242045600#2 -242045600#1 -242045600#0 -328962561#0 -242047953 -519317749 -328962562#1 -328962562#0 -245503037#1 -245503037#0 -602257867#5 -602257867#4 -602257867#2 -602257867#1 -602257867#0 -397626754#5 -397626754#4 -397626754#3 -397626754#1 -397626754#0 -242930246#2 -242930246#1 -397626756#0 -458123179#4 -458123179#3 -458123179#2 -458123179#1 -241955498#5 -241955498#4 -241955498#3 -241955498#2 -241955498#1 133039163#0 82433538 80058205#0 110263759#2 329163401 4453202 248783824 68034411#0 68034411#1 23723680 68034422 23723682 38820717 68034416#0 68034416#1 68034416#3 -62836481 -28432039#3 -28432039#2 -28432039#1 -84018136#2 -84018136#1 -84018136#0                        "></route></vehicle>
    <vehicle type="passenger2a" depart="640.00" id="a2a24"><route edges="60251895 32460618 4433351 62073307 4705771 62073306 156517063#1 4399070 32341044 4406207 64052771 62072524#0 62072524#1 -62836479#1 -62836477 -26763943#3 -26763943#2 -26763943#1 -24993759#6 -24993759#5 -24993875#1 -24993875#0 63108317#1 -61328647#0                        "></route></vehicle>
    <vehicle type="passenger2a" depart="666.67" id="a2a25"><route edges="4432385#0 -4432383#1 -4432383#0 -4432378#0 329286293#1 329286293#2 650203661#1 -454027476 -329286268#0 -328972789#4 -328972789#2 -328972789#1 -386257052 -149149062 4406220 4406222 28409487 34075504#0 34075504#1 4405120#1 4405120#2 34074851 328972803#0 328972803#1 4432768#0 51733196#0 387911767#0 387911767#1 387911767#2 4387602#0 4387602#1 4387602#2 4387602#3 4395414 439208434 328962569#0 328962569#1 328962569#2 34706874#0 34706874#1 34706874#2 241955504#0 241955504#1 241955504#2 328962564#0 328962564#1 -328962563#1 -328962563#0 -242045600#2 -242045600#1 -242045600#0 -328962561#0 -242047953 -519317749 -328962562#1 -328962562#0 -245503037#1 -245503037#0 -602257867#5 -602257867#4 -602257867#2 -602257867#1 -602257867#0 -397626754#5 -397626754#4 -397626754#3 -397626754#1 -397626754#0 -242930246#2 -242930246#1 -397626756#0 -458123179#4 -458123179#3 -458123179#2 -458123179#1 -241955498#5 -241955498#4 -241955498#3 -241955498#2 -241955498#1 133039163#0 82433538 80058205#0 110263759#2 329163401 4453202 248783824 68034411#0 68034411#1 23723680 68034422 23723682 38820717 68034416#0 68034416#1 68034416#3 -62836481 -28432039#3 -28432039#2 -28432039#1 28432039#1                        "></route></vehicle>
    <vehicle type="passenger2a" depart="693.33" id="a2a26"><route edges="-4432392#1 -4432392#0 4432390#4 4432374#0 4432374#1 4432374#3 4432374#4 4432374#5 4432374#7 453800738#0 453800738#1 -149149062 4406220 4406222 28409487 34075504#0 34075504#1 4405120#1 4405120#2 34074851 328972803#0 328972803#1 4432768#0 51733196#0 326272762#1 256078749 32340289#0 32340289#1 385816799#0 147148100 329286231 4442537 156724778 463982793#1 62115073#1 444240350 156517055 156729447 4396732                        "></route></vehicle>
    <vehicle type="passenger2a" depart="720.00" id="a2a27"><route edges="-128238281#1 -4442549#5 -4442549#4 -4442549#2 329286271 -463981133 4442537 156724778 463982793#1 62115073#1 62114271 156517085 156725931 4399104#0 4399104#1 25634944 104043216 659223504 521057237#1 659226747 653971212 -653971214 -521057238#1 -521057238#0 -659226748 -328852473 -260136547#1 -260136547#0 -170598141#2 -170598141#1 -170598141#0 -4427335#6 -4427335#4 -4427335#3 -4427335#2 -4427335#1 -4427335#0 -597799270#1 -597799270#0 -329163393#1 -329163393#0 -329163392#1 -329163392#0 -4624406#1 -4624406#0 4427332#0 4427332#1 4427332#2 329163394#0 329163394#1 329163394#2 -34074419 459427144 -219954685 -219954684 -4624438#5 -4624438#4 4624445#0 4624445#2 4624445#3 4624445#4 204335563#0 204335563#2                        "></route></vehicle>
    <vehicle type="passenger2a" depart="773.33" id="a2a29"><route edges="4432382#0 -4432383#0 -4432378#0 329286293#1 329286293#2 650203661#1 454027469 4441823#1 681482465 329286258#1 329286258#3 329286258#4 329286258#5 329286254#0 329286257 329286255 329286256#0 329286256#1 -4441825#3 -4441825#1 -4441825#0 -329286300 -329286297 -457627968 4442538#1 329286299 180166725 463981127 4442537 156724778 463982793#1 62115073#1 444240350 156517055 156729450 178988487#1 639759316 328847950 385836126#0 535301458 583922141 328847940 653805453 638446703 -328847941#2 -328847941#1 -328847941#0 -457679900#1 -590035773 4567401#1 589943087                        "></route></vehicle>
    <vehicle type="passenger2a" depart="800.00" id="a2a30"><route edges="227562699#0 227562699#1 227562699#2 227562699#3 227562699#4 227562699#6 328847905#0 328847870 328847871 156517059 62072522#1 463981123 179060432 179061345#1 156724777 666512604 32341044 32460642                        "></route></vehicle>
    <vehicle type="passenger2a" depart="853.33" id="a2a32"><route edges="4432390#0 -4432383#2 -4432383#1 -4432383#0 -4432378#0 329286293#1 329286293#2 650203661#1 -454027476 -329286268#0 -328972789#4 -328972789#2 -328972789#1 -386257052 -149149062 4406220 4406222 28409487 34075504#0 34075504#1 4405120#1 4405120#2 34074851 328972803#0 328972803#1 4432768#0 51733196#0 387911767#0 387911767#1 387911767#2 4387602#0 4591084 4591087#0 4591087#1                        "></route></vehicle>
    <vehicle type="passenger2a" depart="880.00" id="a2a33"><route edges="-28216748 62756053#4 62836481 68034410#0 68034410#1 317794101#1 68034419 23723683 4453203#0 4453203#1 -248783828 -4453202 -329163401 -4453205 -110263759#1 82433551#0 82433551#1 133039173#1 241955498#1 241955498#2 241955498#3 241955498#4 241955498#5 458123179#0 458123179#2 458123179#3 458123179#4 397626756#0 242930246#1 242930246#2 397626754#0 397626754#1 397626754#3 397626754#4 397626754#5 602257867#0 602257867#1 602257867#2 602257867#4 602257867#5 245503037#0 245503037#1 328962562#0 328962562#1 328962562#2 242047953 328962561#0 328962561#1 242045600#1 242045600#2 328962563#0 328962563#1 242949070#0 242949070#1 326814543 104841469 256078750#0 256078750#2 442440282 256078751 115670818#0 4396711#0 91395028 328972796#0 328972796#1 328972796#2 329286304#0 329286304#1 -4441825#3 4441829                        "></route></vehicle>
    <vehicle type="passenger2a" depart="906.67" id="a2a34"><route edges="53856394#0 53856394#1 590035773 457679900#1 328847941#0 328847941#1 328847941#2 -4399112 156729452 288356688 156729446 156517058 179060432 179061345#1 156724777 666512604 32341044 32460642                        "></route></vehicle>
    <vehicle type="passenger2a" depart="933.33" id="a2a35"><route edges="-4432392#1 -4432392#0 4432390#4 4432374#0 4432374#1 4432374#3 4432374#4 4432374#5 4432374#7 453800738#0 453800738#1 -149149062 4406220 4406222 28409487 34075504#0 34075504#1 4405120#1 4405120#2 34074851 328972803#0 328972803#1 4432768#0 53376236 326814541#1 326814541#2 326814540 53376237 328972780 62073306 156517063#1 4399070 32341044 4406207 64052771 62072524#0 62072524#1 -62836479#1 -62836477 -26763943#3 -26763943#2 -26763943#1 -26763943#0 -60418608#2 -60418608#1                        "></route></vehicle>
    <vehicle type="passenger2a" depart="960.00" id="a2a36"><route edges="-459427145#3 -459427145#2 -459427145#1 -4624435#9 -4624435#8 -4624435#7 -4624435#6 -4624435#5 -4624435#4 -4624435#3 -4624435#2 -4624435#1 -329163423#3 -329163423#2 -329163423#1 -329163423#0 -329163421#2 -329163421#1 -329163421#0 4624450#1 329163406#1 329163406#2 329163406#3 329163406#4 34074409#0 4624449#5 4624449#6 4624452#0 4624452#1 4624452#2 -329163390 -329163386 -329163388#1 -329163388#0 -110263757#0 4427341#1 329163387#0 329163387#1 110263759#0 110263759#2 329163401 4453202 248783824 68034411#0 68034411#1 23723680 68034422 23723682 38820717 68034416#0 68034416#1 68034416#3 -62836481 -28432039#3 -28432039#2 -28432039#1 -84018136#2 -84018136#1 -84018136#0                        "></route></vehicle>
    <vehicle type="passenger2a" depart="1013.33" id="a2a38"><route edges="-4432392#1 -4432392#0 -4432390#3 -4432390#2 -4432390#1 -4432383#2 -4432383#1 -4432383#0 -4432378#0 329286293#1 329286293#2 650203661#1 454027469 4441823#1 681482465 329286258#1 329286258#3 329286258#4 329286258#5 329286254#0 4441817#0 4441817#1 4441817#2                        "></route></vehicle>
    <vehicle type="passenger2a" depart="1040.00" id="a2a39"><route edges="47356744 178988631 156729446 136776464 156725930 328847936 67486819 67486821 4399104#0 4399104#1 25634944 104043216 659223504 521057237#1 659226747 653971212 -653971214 -521057238#1 -521057238#0 -659226748 -328852473 -260136547#1 -260136547#0 -170598141#2 -170598141#1 -170598141#0 -4427335#6 -4427335#4 -4427335#3 -4427335#2 -4427335#1 -4427335#0 -597799270#1 -597799270#0 4611385#0 4611385#1 4611385#2 4611385#3 4611385#4 4611385#5 4611385#6 196478438#0 55913205#2 55913203#1                        "></route></vehicle>
    <vehicle type="passenger2a" depart="1066.67" id="a2a40"><route edges="-4441817#2 -4441817#1 -4441817#0 329286257 329286255 329286256#0 329286256#1 385816798#0 385816798#2 328972801#0 328972801#2 328972799#3 156517089#0 328972784#0 328972784#1 325996410 328972785 53376236 326814541#1 326814541#2 326814540 53376237 328972780 62073306 156517063#1 4399070 32341044 4406207 64052771 87059428 177007417#0 177007417#1 59475140#0 79085677#0 79085677#1 79085677#2 4406212#0 4406212#1 318728069 32089666 4406216 59164973 79085682 32089657#0 32089657#1 -64052827#0 -64052828#1 -64052828#0 -32040298#3 -32040298#2 -32040298#1 38820338#1 38820338#2 35135625#0 35135625#1 24907061#1 24907061#2 -288319660 -187913310                        "></route></vehicle>
    <vehicle type="passenger2a" depart="1093.33" id="a2a41"><route edges="-584518943#2 23481363#0 23481363#1 23481363#2 23481363#3 23481363#4 23481363#5 23481363#7 23481363#8 -23481356#3 -23481356#2 -23481356#1 79085677#0 79085677#1 79085677#2 4406212#0 4406212#1 318728069 32089666 4406216 59164973 79085682 32089657#0 32089657#1 -64052827#0 -64052828#1 -64052828#0 -32040298#3 -32040298#2 -32040298#1 -292766807#0 -278544265 -219662934#0 288248508#0 288248508#1 293803042#0 288248506#0 288248506#1 288248504 243480577 -38820340#3 -38820340#1 -116353640#3 -116353640#2 -116353640#1 -116353640#0 -265319793 -431726761 -220173775#1 -220173782#1 -317794132 -68034417 68034415#0 68034415#1 68034423 68034419 23723683 4453203#0 4453203#1 -248783828 -4453202 -329163401 -4453205 -110263759#1 110263753#0 110263753#2 110263757#0 110263757#1 329163388#1 329163386 329163390 38820724#1 38820724#3 4427342#0 4427342#1 4427342#2 339934062 32202364 -164209811#4 -164209811#3 -164209811#2 -164209811#1 61319337#1 61319337#3 61319337#4 329163413 252378478#0 252378478#1 177172368 329163391#0 329163391#2 329163391#3                        "></route></vehicle>
    <vehicle type="passenger2a" depart="1120.00" id="a2a42"><route edges="-109761125#2 -109761125#1 -109761125#0 -672065397 -4627972 200513417 82539934#1 4627957 396321000 542288858 -241957549 -328962568#3 -328962568#2 -328962568#1 -241957560#1 242949070#0 242949070#1 326814543 104841469 256078750#0 256078750#2 442440282 256078751 115670818#0 4395415#0 4395415#1 4395415#2 328972784#0 328972784#1 325996410 328972785 104728237#0 104728237#1 104728237#2 104728237#3 289112669#0 289112669#1 289112669#2 328972805#0 328972805#1 149149061 34074908#0 34074908#1 34074908#2 34074908#3 34074908#4                        "></route></vehicle>
    <vehicle type="passenger2a" depart="1146.67" id="a2a43"><route edges="329286293#0 329286293#1 329286293#2 650203661#1 454027469 4441823#1 681482465 329286258#1 329286258#3 329286258#4 329286258#5 329286254#0 329286257 329286255 329286256#0 329286256#1 -4441825#3 -4441825#1 -4441825#0 -329286300 -329286297 -457627968 4442538#1 329286299 180166725 463981127 4442537 156724778 463982793#1 62115073#1 444240350 156517055 156729450 178988487#1 639759316 152597286 178988486#2 152597287#0 152597287#1 152597287#2 152597287#3 152597287#5 152597287#6 219716854 219716857#0 219716857#1 219716856#0 -4609572#2 -4609572#1 -4609571#3 -4609567#5 -4609567#4 -4609567#3 -4609567#2 -4609567#1 -4609567#0                        "></route></vehicle>
    <vehicle type="passenger2a" depart="1200.00" id="a2a45"><route edges="66990427 79085676#4 79085676#5 79085676#6 66990425#0 66990425#1 37833219#1 62072527#0 62072527#1 4406216 59164973 79085682 32089657#0 32089657#1 -64052827#0 -64052828#1 -64052828#0 -32040298#3 -32040298#2 -32040298#1 -292766807#0 -278544265 -219662934#0 288248508#0 288248508#1 293803042#0 288248506#0 288248506#1 288248504 243480577 -38820340#3 -38820340#1 -116353640#3 -116353640#2 -116353640#1 -116353640#0 -265319793 -431726761 -220173775#1 -220173782#1 -317794132 -68034417 68034415#0 68034415#1 68034423 68034419 23723683 4453203#0 4453203#1 -248783828 -4453202 -329163401 -4453205 -110263759#1 119796455#1 727108696 329163399 437045173#1 437045173#2 437045173#3 437045173#4 437045173#6 329163400#1 82433536 329163402#0 329163402#2 248963104#1 119810553#1 119810553#2 119810553#3 -539782979 -557263984#1 -557263984#0 -119810554#4 -119810554#3 -119810554#1 -119810554#0 -557263987#1 -557263990#2 -557263990#1 -557263990#0 -597799270#1 -597799270#0 4611385#0 4611385#1 4611385#2 4611385#3 4611385#4 4611385#5 4611385#6 196478438#0 55913205#2 55913203#1                        "></route></vehicle>
    <vehicle type="passenger2a" depart="1226.67" id="a2a46"><route edges="60251895 32460618 4433351 62073307 4399103#1 51732984#1 328972785 104728237#0 104728237#1 104728237#2 104728237#3 289112669#0 289112669#1 289112669#2 328972805#0 328972805#1 132314084#0 132314084#1 149149062 386257052 328972789#0 328972789#2 328972789#4 328972789#5 4432380#0 4432380#1 -4432378#2 -4432378#1 4432383#0 4432383#1 -4432385#0                        "></route></vehicle>
    <vehicle type="passenger2a" depart="1253.33" id="a2a47"><route edges="-60180154#1 -435017532#4 -435017532#3 -435017532#2 -435017532#1 -85076013#3 -85076013#2 -85076013#0 -66021171#4 -66021171#2 -66021171#1 -66021171#0 -613501578 -60302077#2 -60302077#1 -60302077#0 -520786903 -419882020 -87059422#0 62073787 87059432 64052774 32460618 4433351 62073307 4399103#1 51732984#1 328972785 104728237#0 104728237#1 104728237#2 104728237#3 289112669#0 289112669#1 289112669#2 328972805#0 328972805#1 132314084#0 132314084#1 149149062 -453800738#1 -453800738#0 -454027479 -4432374#5 -4432374#4 -4432374#3 -4432374#2 -4432374#0 113879861#1 113879861#2                        "></route></vehicle>
    <vehicle type="passenger2a" depart="1280.00" id="a2a48"><route edges="60251895 32460618 4433351 62073307 4705771 62073306 156517063#1 4399070 32341044 4406207 64052771 87059428 177007417#0 177007417#1 59475140#0 23481356#1 23481356#2 23481356#3 -23481363#8 -23481363#7 -23481363#5 -23481363#4 -23481363#3 -23481363#2 -23481363#1 -23481363#0 584518943#2                        "></route></vehicle>
    <vehicle type="passenger2a" depart="1306.67" id="a2a49"><route edges="4432390#0 -4432383#2 -4432383#1 -4432383#0 -4432378#0 329286293#1 329286293#2 650203661#1 454027469 4441823#1 681482465 329286258#1 329286258#3 329286258#4 329286258#5 329286254#0 329286257 329286255 329286256#0 329286256#1 -4441825#3 -4441825#1 -4441825#0 -329286300 -329286297 -457627968 4442538#1 329286299 180166725 463981127 4442537 156724778 463982793#1 62115073#1 444240350 156517055 156729450 178988487#1 639759316 152597286 178988486#2 152597287#0 152597287#1 152597287#2 152597287#3 152597287#5 152597287#6 219716854 219716857#0 219716857#1 219716856#0 -4609572#2 -4609572#1 -4609572#0                        "></route></vehicle>
    <vehicle type="passenger2a" depart="1386.67" id="a2a52"><route edges="-4624426 -4624425#2 -4624425#0 -329163422#0 -103667851 -329163395 -136781633 -4427330#0 -136781632#0 -329163402#0 -82433536 -329163400#1 -329163400#0 -437045173#5 -437045173#3 -437045173#2 -437045173#1 -437045173#0 -727108696 -82433543#0 82433551#0 82433551#1 133039173#1 241955498#1 241955498#2 241955498#3 241955498#4 241955498#5 458123179#0 458123179#2 458123179#3 458123179#4 397626756#0 242930246#1 242930246#2 397626754#0 397626754#1 397626754#3 397626754#4 397626754#5 602257867#0 602257867#1 602257867#2 602257867#4 602257867#5 245503037#0 245503037#1 328962562#0 328962562#1 328962562#2 242047953 328962561#0 328962561#1 242045600#1 242045600#2 328962563#0 328962563#1 242949070#0 242949070#1 326814543 104841469 256078750#0 256078750#2 442440282 256078751 115670818#0 4395415#0 4395415#1 4395415#2 328972784#0 328972784#1 325996410 328972785 53376236 326814541#1 326814541#2 326814540 53376237 328972780 62073306 156517063#1 4399070 32341044 32460642                        "></route></vehicle>
    <vehicle type="passenger2a" depart="1413.33" id="a2a53"><route edges="4609567#0 4609567#1 4609567#2 4609567#3 4609567#4 4609567#5 4609571#3 4609572#1 4609572#2 -219716856#0 -219716857#1 -219716857#0 -219716854 -152597287#6 -152597287#5 -152597287#3 -152597287#2 -152597287#1 -152597287#0 583097252#1 328847950 385836126#0 535301458 583922141 328847940 653805453 638446703 -4399112 156729452 288356688 156729446 136776464 156725930 328847936 67486819 67486821 4399104#0 4570086#0 4570086#1 -684076816#2 -684076816#1 -684076816#0 -246293271#1 -246293271#0 -684076812#1 -684076812#0 -170598162 -170598160 -4570093#1 -4570093#0 4591064#0 4591064#1 442440279#2 442440279#3 442440279#4 442440281 227562704#0 227562704#3 328972794#0 328972794#2 328972795#0 328972795#1 328972795#2 328972795#3 227562705#0 227562705#2 151003058 328972792 328972791 328972793#0 4387602#0 4387602#1 4387602#2 4387602#3 4395414 439208434 328962569#0 328962569#1 328962569#2 34706874#0 34706874#1 34706874#2 241955504#0 241955504#1 241955504#2 328962564#0 328962564#1 241957560#1 241957815#0 241957815#1 241957815#2 -4627942#7 -4627942#6 -4627942#5 -4627942#4 -4627942#3 -4627942#2 -4627942#1 -4627942#0                        "></route></vehicle>
    <vehicle type="passenger2a" depart="1466.67" id="a2a55"><route edges="419882010#0 -419882018 -87059422#0 62073787 87059432 64052774 32460618 4433351 62073307 4399103#1 51732984#1 328972785 104728237#0 104728237#1 104728237#2 104728237#3 289112669#0 289112669#1 289112669#2 328972805#0 328972805#1 132314084#0 132314084#1 149149062 -453800738#1 -453800738#0 -454027479 -4432374#5 -4432374#4 -4432374#3 -4432374#2 -4432374#0 -4432390#4 4432392#0 4432392#1                        "></route></vehicle>
    <vehicle type="passenger2a" depart="1520.00" id="a2a57"><route edges="-4705777#4 -4705777#1 -4705777#0 -531527811#13 -531527811#12 -531527811#11 -531527811#10 -531527811#9 -531527811#8 -531527811#7 -531527811#6 -531527811#5 -531527811#4 -531527811#2 -531527811#1 222826764 641535063#1 328852474 659223380 4386508#0 4386508#1 641535062#0 641535062#1 -521057237#1 -521057237#0 -104043216 -111393025 4570090#1 4399095 328847936 156725924 156517067 328847919 -4705775#0 -227562699#4 -227562699#3 -227562699#2 -227562699#1 -227562699#0                        "></route></vehicle>
    <vehicle type="passenger2a" depart="1573.33" id="a2a59"><route edges="329286293#0 329286293#1 329286293#2 650203661#1 -454027476 -329286268#0 -328972789#4 -328972789#2 -328972789#1 -386257052 -149149062 4406220 132314083#0 132314083#1 34074908#1 34074908#2 34074908#3 34074908#4                        "></route></vehicle>