<routes>
<vType maxSpeed="70.00" probability="0.10" color="77,77,77" accel="2.7" decel="4.1" vClass="passenger" emergencyDecel="4.5" length="6.00" minGap="1.50" speedFactor="normc(1.00,0.10,0.20,2.00)" sigma="0.5" id="passenger4a"/>
    <vehicle type="passenger4a" depart="0.00" id="a4a0"><route edges="4453190#0 4453190#1 4453190#2 320744207#0 117813679 320744210#1 320744211 117813695#0 117813695#1 460792171 475533462#0 475533462#1 117813685 -66310433#0 -4453200 -35156860#1 -35156860#0 -613501570 -35135627 4406215#0 4406215#1 79085682 32089689 32089674 4406213#0 4406213#1 -79085677#2 -79085677#1 -79085677#0 -59475140#1 4406210 64052819#0 4406208 87059432 64052774 32460618 4433351 62073307 4705771 62073306 156517063#1 4399070 32341044 32460642                        "></route></vehicle>
    <vehicle type="passenger4a" depart="26.67" id="a4a1"><route edges="4567395 589943086 -589943087 -4567401#1 590035773 457679900#1 328847941#0 328847941#1 328847941#2 -4399112 156729452 288356688 156729446 136776464 156725930 328847936 67486819 67486821 4399104#0 4570086#0 4570086#1 -684076816#2 -684076816#1 -684076816#0 -246293271#1 -246293271#0 -684076812#1 -684076812#0 -170598162 -170598160 -4570093#1 -4570093#0 4591064#0 4591064#1 442440279#2 442440279#3 442440279#4 442440281 227562704#0 227562704#3 328972794#0 328972794#2 328972795#0 328972795#1 328972795#2 328972795#3 227562705#0 227562705#2 151003058 328972792 328972791 328972793#0 4387602#0 4387602#1 4387602#2 4387602#3 4395414 439208434 328962569#0 328962569#1 328962569#2 34706874#0 34706874#1 34706874#2 241955504#0 241955504#1 241955504#2 328962564#0 328962564#1 241957560#1 241957815#0 241957815#1 241957815#2 -4627942#7 -4627941 -4627939#6 -4627939#5 -4627939#4 -4627939#3 -4627939#2 -4627939#1 -4627939#0                        "></route></vehicle>
    <vehicle type="passenger4a" depart="80.00" id="a4a3"><route edges="-4705777#4 4609561#0 4609561#1 4609561#2 4609561#3 4609561#4 4609561#5 4609561#6 4609561#7 4609561#8 4609561#9 4609561#10 4609561#11 4609561#12 4609561#13 4609561#15 4609561#16 4609558#10 4609571#0 4609571#1 4609571#2 4609571#3 -4609572#0                        "></route></vehicle>
    <vehicle type="passenger4a" depart="106.67" id="a4a4"><route edges="317794125#0 317794125#1 37833219#1 62072527#0 62072527#1 4406216 59164973 79085682 32089657#0 32089657#1 -64052827#0 -64052828#1 -64052828#0 -32040298#3 -32040298#2 -32040298#1 -292766807#0 -278544265 -219662934#0 288248508#0 288248508#1 293803042#0 288248506#0 288248506#1 288248504 243480577 -38820340#3 -38820340#1 -116353640#3 -116353640#2 -116353640#1 -116353640#0 -265319793 -431726761 -220173775#1 -220173782#1 -317794132 -68034417 68034415#0 68034415#1 68034423 68034419 23723683 4453203#0 4453203#1 -248783828 -4453202 -329163401 -4453205 -110263759#1 119796455#1 727108696 329163399 437045173#1 437045173#2 437045173#3 437045173#4 437045173#6 329163400#1 82433536 329163402#0 329163402#2 248963104#1 119810553#1 119810553#2 119810553#3 119810565#1 119810565#2 119810565#3 119810565#4 462397653#4 4427345#2 4427345#3 4427345#4 4427345#5 4427345#6 4427346#0 15070830 -200843277#4 -200843277#3 -200843277#2 -200843277#1 -200843277#0                        "></route></vehicle>
    <vehicle type="passenger4a" depart="133.33" id="a4a5"><route edges="4609572#0 4609572#1 4609572#2 -219716856#0 -219716857#1 -219716857#0 -219716854 -152597287#6 -152597287#5 -152597287#3 -152597287#2 -152597287#1 -152597287#0 583097252#1 328847950 385836126#0 535301458 583922141 328847940 653805453 638446703 -4399112 156729452 288356688 156729446 156517058 179060432 179061345#1 156724777 666512604 32341044 4406207 64052771 87059428 32341117 87059422#0 419882018 -419882010#0                        "></route></vehicle>
    <vehicle type="passenger4a" depart="160.00" id="a4a6"><route edges="-67652230#1 -594086993#3 -25116965#0 -419882012#1 -84018136#2 -84018136#1 -84018136#0                        "></route></vehicle>
    <vehicle type="passenger4a" depart="186.67" id="a4a7"><route edges="84018136#0 84018136#1 84018136#2 28432039#1 28432039#2 28432039#3 62836481 68034410#0 68034410#1 317794101#1 68034419 23723683 4453203#0 4453203#1 -248783828 -4453202 -329163401 -4453205 -110263759#1 119796455#1 727108696 329163399 437045173#1 437045173#2 437045173#3 437045173#4 437045173#6 329163400#1 82433536 329163402#0 329163402#2 4427330#0 4427330#1 329163395 67027737#0 131610063#0 131610063#2 131610063#3 329163396 131610062#2 329163398#0 34074419 -329163394#2 -329163394#1 -329163394#0 -4427332#2 -4427332#1 -4427332#0 -329163412 -329163409 -329163410#0 -329163411 4611394#1 4611394#2 4611394#3 4611394#4 4611394#5 4611394#7 4611394#8 4611394#10                        "></route></vehicle>
    <vehicle type="passenger4a" depart="213.33" id="a4a8"><route edges="60251895 32460618 151288342 156724778 463982793#1 62115073#1 444240350 156517055 156729447 4396732                        "></route></vehicle>
    <vehicle type="passenger4a" depart="240.00" id="a4a9"><route edges="60418608#0 60418608#2 60418608#3 26763943#1 26763943#2 26763943#3 62836477 62836479#1 62072523#0 62072523#1 32341117 4406208 87059432 64052774 32460618 4433351 62073307 4705771 62073306 156517063#1 4399070 32341044 32460642                        "></route></vehicle>
    <vehicle type="passenger4a" depart="266.67" id="a4a10"><route edges="-4705777#4 -4705777#1 -4705777#0 -531527811#13 -531527811#12 -531527811#11 -531527811#10 -531527811#9 -531527811#8 -531527811#7 -531527811#6 -531527811#5 -531527811#4 -531527811#2 -531527811#1 222826764 641535063#1 328852474 659223380 4386508#0 4386508#1 641535062#0 641535062#1 -521057237#1 -521057237#0 -104043216 -111393025 4570090#1 4399095 328847936 67486819 4399098 328847871 156517059 -128341980#1 -128341980#0 -128346861#2 -128346861#1 -128346440                        "></route></vehicle>
    <vehicle type="passenger4a" depart="293.33" id="a4a11"><route edges="-106565099 -329163422#2 -329163422#1 -329163422#0 -103667851 -329163395 -136781633 -4427330#0 -136781632#0 -329163402#0 -82433536 -329163400#1 -329163400#0 -437045173#5 -437045173#3 -437045173#2 -437045173#1 -437045173#0 -727108696 -82433543#0 110263759#0 110263759#2 329163401 4453202 248783824 68034411#0 68034411#1 23723680 68034422 23723682 4453198#0 4453198#1 68034417 317794132 220173782#1 431726762#1 25116776#0 25116776#2 25116776#3 25116776#4 25116776#5 25116776#8 596568012#1                        "></route></vehicle>
    <vehicle type="passenger4a" depart="320.00" id="a4a12"><route edges="4627942#0 4627942#1 4627942#2 4627942#3 4627942#4 4627942#5 4627942#6 4627942#7 4627943#0 241955504#1 241955504#2 328962564#0 328962564#1 242949070#0 242949070#1 326814543 34074634#0 34074634#1 328972795#1 328972795#2 328972795#3 227562705#0 227562705#2 151003058 328972792 328972791 328972793#0 4387602#0 4591084 4591087#0 4591087#1                        "></route></vehicle>
    <vehicle type="passenger4a" depart="346.67" id="a4a13"><route edges="-55914803 4611373#8 4611373#9 170598141#0 170598141#1 170598141#2 260136547#0 260136547#1 328852473 659226748 521057238#0 521057238#1 653971214 -653971212 -659226747 -521057237#1 -521057237#0 -104043216 -111393025 229943906#0 229943906#1 262649859 262649858 156517055 156729447 4396732                        "></route></vehicle>
    <vehicle type="passenger4a" depart="373.33" id="a4a14"><route edges="93248849#0 93248849#1 58950788#2 58950788#3 672889052#0 672889052#1 171575216 22819689#0 22819689#1 22819692 22819691#0 18921550#1 425873849#1 425873848#1 425873848#2 425873848#3 67022241#0 24646013#1 24646013#2 -243480578#3 -243480578#2 -243480578#0 -85076013#3 -85076013#2 -85076013#0 -66021171#4 -66021171#2 -66021171#1 -66021171#0 -613501578 -60302077#2 -60302077#1 -60302077#0 -520786903 -419882020 -87059422#0 -32341117 177007417#0 177007417#1 59475140#0 23481356#1 23481356#2 23481356#3 -23481363#8 -23481363#7 -23481363#5 -23481363#4 -23481363#3 -23481363#2 -23481363#1 -23481363#0 584518943#2                        "></route></vehicle>
    <vehicle type="passenger4a" depart="400.00" id="a4a15"><route edges="-4705777#4 -4705777#1 -4705777#0 -531527811#13 -531527811#12 -531527811#11 -531527811#10 -531527811#9 -531527811#8 -531527811#7 -531527811#6 -531527811#5 -531527811#4 -531527811#2 -531527811#1 222826764 641535063#1 328852474 659223380 4386508#0 4386508#1 641535062#0 641535062#1 -521057237#1 -521057237#0 -104043216 -111393025 4570090#1 4399095 328847936 67486819 4399098 328847871 156517059 -128341980#1 -128341980#0 -128346861#2 -128346861#1 -128346440                        "></route></vehicle>
    <vehicle type="passenger4a" depart="480.00" id="a4a18"><route edges="4567395 589943086 -589943087 -4567401#1 590035773 457679900#1 328847941#0 328847941#1 328847941#2 -4399112 156729452 288356688 156729446 136776464 156725930 328847936 67486819 67486821 4399104#0 4570086#0 4570086#1 -684076816#2 -684076816#1 -684076816#0 -246293271#1 -246293271#0 -684076812#1 -684076812#0 -170598162 -170598160 -4570093#1 -4570093#0 4591064#0 4591064#1 442440279#2 442440279#3 442440279#4 442440281 227562704#0 227562704#3 328972794#0 328972794#2 328972795#0 328972795#1 328972795#2 328972795#3 227562705#0 227562705#2 151003058 328972792 328972791 328972793#0 -326272763 326272764#0 326272764#5 219716862#0 219716862#1 219716862#3 219716862#4 219716862#5 219716862#6 28250001#0 28250001#1 178085048 219716865 27236474 115927240#1                        "></route></vehicle>
    <vehicle type="passenger4a" depart="506.67" id="a4a19"><route edges="-399370052 -399370048 -677322184#1 677322182 657044730#1 657044730#2 677745868#0 677745868#1 4386508#1 641535062#0 641535062#1 659226747 653971212 -653971214 -521057238#1 653965403#0 653965403#1 641535065 -641535063#1 -641535063#0 -531527809#1 -531527809#0 -653999909 -653890304 -4399110 385836126#0 535301458 583922141 328847940 653805453 638446703 -328847941#2 -328847941#1 -328847941#0 -457679900#1 -590035773 4567401#1 589943087                        "></route></vehicle>
    <vehicle type="passenger4a" depart="533.33" id="a4a20"><route edges="-4432392#1 -4432392#0 4432390#4 4432374#0 4432374#1 4432374#3 4432374#4 4432374#5 4432374#7 453800738#0 453800738#1 -149149062 4406220 4406222 28409487 34075504#0 34075504#1 4405120#1 4405120#2 34074851 328972803#0 328972803#1 4432768#0 53376236 326814541#1 326814541#2 326814540 53376237 328972780 62073306 156517063#1 4399070 32341044 4406207 64052771 87059428 177007417#0 177007417#1 59475140#0 23481356#1 23481356#2 23481356#3 -23481363#8 -23481363#7 -23481363#5 -23481363#4 -23481363#3 -23481363#2 -23481363#1 -23481363#0 584518943#2                        "></route></vehicle>
    <vehicle type="passenger4a" depart="560.00" id="a4a21"><route edges="-219716855 -219716856#0 -219716857#1 -219716857#0 -219716854 -152597287#6 -152597287#5 -152597287#3 -152597287#2 -152597287#1 -152597287#0 583097252#1 328847950 385836126#0 535301458 583922141 328847940 653805453 638446703 -4399112 156729452 288356688 156729446 136776464 156725930 328847936 67486819 67486821 4399104#0 4570086#0 4570086#1 -684076816#2 -684076816#1 -684076816#0 -246293271#1 -246293271#0 -684076812#1 -684076812#0 -170598162 -170598160 -4570093#1 -4570093#0 4591064#0 4591064#1 442440279#2 442440279#3 442440279#4 442440281 227562704#0 227562704#3 328972794#0 328972794#2 328972795#0 328972795#1 328972795#2 328972795#3 227562705#0 227562705#2 151003058 328972792 328972791 328972793#0 4387602#0 4387602#1 4387602#2 4387602#3 4395414 439208434 328962569#0 328962569#1 328962569#2 34706874#0 34706874#1 34706874#2 241955504#0 241955504#1 241955504#2 328962564#0 328962564#1 241957560#1 -245503041                        "></route></vehicle>
    <vehicle type="passenger4a" depart="640.00" id="a4a24"><route edges="-55914803 4611373#8 4611373#9 170598141#0 170598141#1 170598141#2 260136547#0 260136547#1 328852473 659226748 521057238#0 521057238#1 653971214 -653971212 -659226747 -521057237#1 -521057237#0 -104043216 -111393025 4570090#1 4399095 328847936 67486819 4399098 328847871 156517059 62072522#1 463981123 179060432 179061345#1 4399101#0 4399101#1 329286271 53376240 482265404 4399100 329286233 329286232#0 4395415#0 4395415#1 4395415#2 328972784#0 328972784#1 325996410 328972785 104728237#0 104728237#1 104728237#2 104728237#3 289112669#0 289112669#1 289112669#2 328972805#0 328972805#1 149149061 28409487 4446568#0 4446570#1 4446570#2 4446571#0 4446571#1 4446574                        "></route></vehicle>
    <vehicle type="passenger4a" depart="666.67" id="a4a25"><route edges="-60180154#1 118254791#1 118254791#4 23076776#1 23076776#2 304505287#0 -472350008#1 -472350008#0 -25745025#3 -25745025#2 -25745025#0 266925780#0 266925780#1 266925780#2 -419882007 -62073305#4 -62073305#3 -62073305#2 -62073305#1 -62073305#0 -68034420#1 -68034420#0 68034409 419882008 68034422 23723682 38820717 68034416#0 68034416#1 68034416#3 -62836481 -28432039#3 -28432039#2 -28432039#1 -84018136#2 -84018136#1 -84018136#0                        "></route></vehicle>
    <vehicle type="passenger4a" depart="693.33" id="a4a26"><route edges="4609572#0 4609572#1 4609572#2 -219716856#0 -219716857#1 -219716857#0 -219716854 -152597287#6 -152597287#5 -152597287#3 -152597287#2 -152597287#1 -152597287#0 583097252#1 328847950 385836126#0 535301458 583922141 328847940 653805453 638446703 -4399112 156729452 288356688 156729446 156517058 179060432 179061345#1 4399101#0 4399101#1 329286271 53376240 482265404 4399100 329286233 329286232#0 4395415#0 4395415#1 4395415#2 328972784#0 328972784#1 325996410 328972785 104728237#0 104728237#1 104728237#2 104728237#3 289112669#0 289112669#1 289112669#2 328972805#0 328972805#1 149149061 34074908#0 34074908#1 34074908#2 34074908#3 34074908#4                        "></route></vehicle>
    <vehicle type="passenger4a" depart="720.00" id="a4a27"><route edges="4432385#0 -4432383#1 -4432383#0 -4432378#0 329286293#1 329286293#2 650203661#1 454027469 4441823#1 681482465 329286258#1 329286258#3 329286258#4 329286258#5 329286254#0 4441817#0 4441817#1 4441817#2                        "></route></vehicle>
    <vehicle type="passenger4a" depart="746.67" id="a4a28"><route edges="-4611402#1 -4611402#0 -4620318#0 -131644781 -4611369#11 -4611369#10 -4611369#5 -4611369#3 -4611369#2 -4611369#1 -4611369#0 4427335#0 4427335#1 4427335#2 4427335#3 4427335#4 4427335#6 170598141#0 170598141#1 170598141#2 260136547#0 260136547#1 328852473 659226748 521057238#0 521057238#1 653971214 -653971212 -659226747 -521057237#1 -521057237#0 -104043216 -111393025 4570090#1 4399095 328847936 67486819 4399098 328847871 156517059 62072522#1 463981123 179060432 179061345#1 4399101#0 4399101#1 329286271 53376240 482265404 4399100 329286233 329286232#0 4395415#0 4395415#1 4395415#2 328972784#0 328972784#1 325996410 328972785 104728237#0 104728237#1 104728237#2 104728237#3 289112669#0 289112669#1 289112669#2 328972805#0 328972805#1 149149061 34074908#0 34074908#1 34074908#2 34074908#3 34074908#4                        "></route></vehicle>
    <vehicle type="passenger4a" depart="773.33" id="a4a29"><route edges="47356744 178988631 156729446 136776464 156725927 156517081 156517067 328847919 -4705775#0 -227562699#4 -227562699#3 -227562699#2 -227562699#1 -227562699#0                        "></route></vehicle>
    <vehicle type="passenger4a" depart="826.67" id="a4a31"><route edges="4609572#0 -4609571#3 -4609571#2 -4609571#1 -4609571#0 -4609558#10 -4609558#8 -4609558#7 -4609558#6 -4609558#5 -4609558#4 -4609558#3 -4609558#2 -4609558#1 -4609558#0 531527811#12 531527811#13 -4611371#4 -4611371#3 -4611371#2 -4611371#1 -4611371#0 -4620318#0 -131644781 -4611369#11 -4611369#10 -4611369#5 -4611369#3 -4611369#2 -4611369#1 -4611369#0 557263990#0 557263990#1 557263990#2 557263987#1 557263987#2 119810554#1 119810554#3 119810554#4 557263984#0 557263984#1 539782979 248963106#0 248963106#1 248963106#2 248963106#3 248963106#4 329163403#1 329163403#2 329163403#3 329163403#4 329163403#5 329163403#6 329163403#7 -136781632#0 -329163402#0 -82433536 -329163400#1 -329163400#0 -437045173#5 -437045173#3 -437045173#2 -437045173#1 -437045173#0 -727108696 -82433543#0 110263759#0 110263759#2 329163401 4453202 248783824 68034411#0 68034411#1 23723680 68034422 23723682 4453198#0 4453198#1 68034417 317794132 220173782#1 317794133#2 35156858#1 317794135#0 117813683 117813687#0 117813687#1 -117813685 -84033910#1 -84033910#0 -460792170 -317794121#1 -317794121#0 -460792169 -460792168 -67354201 -317794119 -317794120                        "></route></vehicle>
    <vehicle type="passenger4a" depart="853.33" id="a4a32"><route edges="84018136#0 84018136#1 84018136#2 28432039#1 28432039#2 28432039#3 62836481 68034410#0 68034410#1 317794101#1 68034419 23723683 4453203#0 4453203#1 -248783828 -4453202 -329163401 -4453205 -110263759#1 119796455#1 727108696 329163399 437045173#1 437045173#2 437045173#3 437045173#4 437045173#6 329163400#1 82433536 329163402#0 329163402#2 248963104#1 119810553#1 119810553#2 119810553#3 -539782979 -557263984#1 -557263984#0 -119810554#4 -119810554#3 -119810554#1 -119810554#0 -557263987#1 -557263990#2 -557263990#1 -557263990#0 4611369#0 4611369#1 4611369#2 4611369#3 4611369#5 4611369#10 4611369#11 4620317 4620318#0 4611371#0 4611371#1 4611371#2 4611371#3 4611371#4 -531527811#13 -531527811#12 4609558#0 4609558#1 4609558#2 4609558#3 4609558#4 4609558#5 4609558#6 4609558#7 4609558#8 4609558#10 4609571#0 4609571#1 4609571#2 -4609567#5 -4609567#4 -4609567#3 -4609567#2 -4609567#1 -4609567#0                        "></route></vehicle>
    <vehicle type="passenger4a" depart="880.00" id="a4a33"><route edges="187913310 288319660 -24907061#2 -24907061#1 -35135625#1 -58696106#1 -58696106#0 -25349279#8 -25349279#7 -25349279#6 -25349279#5 -25349279#4 -25349279#3 -25349279#2 -25349279#1 32040298#3 64052828#0 64052828#1 64052827#0 24670995#0 24670995#1 32089674 4406213#0 4406213#1 -79085677#2 -79085677#1 -79085677#0 -59475140#1 4406210 64052819#0 4406208 87059432 64052774 32460618 4433351 62073307 4705771 62073306 156517063#1 4399070 32341044 32460642                        "></route></vehicle>
    <vehicle type="passenger4a" depart="906.67" id="a4a34"><route edges="-399370052 -399370048 -677322184#1 677322182 657044730#1 657044730#2 677745868#0 677745868#1 4386508#1 641535062#0 641535062#1 -521057237#1 -521057237#0 -104043216 -111393025 4570090#1 4399095 328847936 67486819 4399098 328847871 156517059 62072522#1 463981123 179060432 179061345#1 4399101#0 4399101#1 329286271 53376240 463983939#0 89972201#1 329286297 329286300 4441825#0 4441825#1 4441829                        "></route></vehicle>
    <vehicle type="passenger4a" depart="933.33" id="a4a35"><route edges="60251895 32460618 151288342 156724778 463982793#1 62115073#1 444240350 156517055 156729447 4396732                        "></route></vehicle>
    <vehicle type="passenger4a" depart="960.00" id="a4a36"><route edges="-70881805#3 -70881805#2 -70881805#1 -70881805#0 122124831#0 122124831#1 19913820 -68034420#1 -68034420#0 68034409 419882008 68034422 38820720 4453203#0 4453203#1 -248783828 -4453202 -329163401 -4453205 -110263759#1 119796455#1 727108696 329163399 437045173#1 437045173#2 437045173#3 437045173#4 437045173#6 329163400#1 82433536 329163402#0 329163402#2 248963104#1 119810553#1 119810553#2 119810553#3 -539782979 -557263984#1 -557263984#0 -119810554#4 -119810554#3 -119810554#1 -119810554#0 -557263987#1 -557263990#2 -557263990#1 -557263990#0 4611369#0 4611369#1 4611369#2 4611369#3 4611369#5 4611369#10 4611369#11 4620317 4620318#0 4611371#0 4611371#1 4611371#2 4611371#3 4611371#4 -531527811#13 -531527811#12 4609558#0 4609558#1 4609558#2 4609558#3 4609558#4 4609558#5 4609558#6 4609558#7 4609558#8 4609558#10 4609571#0 4609571#1 4609571#2 4609571#3 -4609572#0                        "></route></vehicle>
    <vehicle type="passenger4a" depart="1013.33" id="a4a38"><route edges="-596568012#1 -25116776#8 -25116776#6 -25116776#4 -25116776#3 -25116776#2 -25116776#0 -431726762#1 -220173782#1 -317794132 -68034417 68034415#0 68034415#1 68034423 68034419 23723683 4453203#0 4453203#1 -248783828 -4453202 -329163401 -4453205 -110263759#1 119796455#1 727108696 329163399 437045173#1 437045173#2 437045173#3 437045173#4 437045173#6 329163400#1 82433536 329163402#0 329163402#2 4427330#0 4427330#1 329163395 67027737#0 131610063#0 131610063#2 131610063#3 329163396 131610062#2 329163398#0 34074419 -329163394#2 -329163394#1 -329163394#0 -4427332#2 -4427332#1 -4427332#0 -329163412 -329163409 -329163410#0 -329163411 4611394#1 4611394#2 4611394#3 4611394#4 4611394#5 4611394#7 4611394#8 4611394#10                        "></route></vehicle>
    <vehicle type="passenger4a" depart="1040.00" id="a4a39"><route edges="-463414886 219662942#1 -265319793 -431726761 -220173775#1 -220173782#1 -317794132 -68034417 68034415#0 68034415#1 68034423 68034419 23723683 4453203#0 4453203#1 -248783828 -4453202 -329163401 -4453205 -110263759#1 119796455#1 727108696 329163399 437045173#1 437045173#2 437045173#3 437045173#4 437045173#6 329163400#1 82433536 329163402#0 329163402#2 248963104#1 119810553#1 119810553#2 119810553#3 119810565#1 119810565#2 119810565#3 119810565#4 119810565#5 119810565#6 119810565#8 119810565#9 119810562#0 119810562#1 119810562#2 119810562#3 119810562#4 119810562#5 119810562#6 119810562#7 119810570#0 119810570#1 119810570#2 458648630#0 458648630#1 458648630#2 638458256 551284434#1 551284434#2 551284437#0 551284437#1 521057238#1 653971214 -653971212 -659226747 -521057237#1 -521057237#0 -104043216 -111393025 229943906#0 229943906#1 262649859 262649858 156517055 156729447 4396732                        "></route></vehicle>
    <vehicle type="passenger4a" depart="1066.67" id="a4a40"><route edges="60418608#0 60418608#2 60418608#3 26763943#1 26763943#2 26763943#3 62836477 62836479#1 62072523#0 62072523#1 32341117 87059422#0 419882020 419882019 60302077#0 60302077#1 60302077#2 540214008 66021171#0 66021171#1 66021171#2 66021171#4 85076013#0 85076013#2 85076013#3 435017532#1 435017532#2 435017532#3 435017532#4 118254791#1 118254791#4 23076776#1 23076776#2 304505287#0 -472350008#1 -472350008#0 -25745025#3 -25745025#2 -25745025#0 266925780#0 266925780#1 266925780#2 -419882007 -62073305#4 -62073305#3 -62073305#2 -62073305#1 -62073305#0 -68034420#1 -68034420#0 68034409 419882008 68034422 23723682 38820717 68034416#0 68034416#1 68034416#3 -62836481 -28432039#3 -28432039#2 -28432039#1 -84018136#2 -84018136#1 -84018136#0                        "></route></vehicle>
    <vehicle type="passenger4a" depart="1093.33" id="a4a41"><route edges="84018136#0 84018136#1 84018136#2 28432039#1 28432039#2 28432039#3 62836481 68034410#0 68034410#1 317794101#1 68034419 23723683 38820721 68034414 23076777 68034420#0 68034420#1 62073305#0 62073305#1 62073305#2 62073305#3 62073305#4 419882007 32040289#0 419882009#0 419882009#1 23076778#1 397626752#0 18921550#1 425873849#1 425873848#1 425873848#2 425873848#3 67022241#0 24646013#1 24646013#2 -243480578#3 -243480578#2 -243480578#0 -85076013#3 -85076013#2 -85076013#0 -66021171#4 -66021171#2 -66021171#1 -66021171#0 -613501578 -60302077#2 -60302077#1 -60302077#0 -520786903 -419882020 -87059422#0 62073787 87059432 64052774 32460618 4433351 62073307 4399103#1 51732984#1 328972785 104728237#0 104728237#1 104728237#2 104728237#3 289112669#0 289112669#1 289112669#2 328972805#0 328972805#1 132314084#0 132314084#1 149149062 386257052 328972789#0 328972789#2 328972789#4 328972789#5 454027476 4430756 686962510                        "></route></vehicle>
    <vehicle type="passenger4a" depart="1120.00" id="a4a42"><route edges="-106565099 -329163422#2 -329163422#1 -329163422#0 -103667851 -329163395 -136781633 -4427330#0 -136781632#0 -329163402#0 -82433536 -329163400#1 -329163400#0 -437045173#5 -437045173#3 -437045173#2 -437045173#1 -437045173#0 -727108696 -82433543#0 82433551#0 82433551#1 133039173#1 241955498#1 241955498#2 241955498#3 241955498#4 241955498#5 458123179#0 458123179#2 458123179#3 458123179#4 397626756#0 242930246#1 242930246#2 397626754#0 397626754#1 397626754#3 397626754#4 397626754#5 602257867#0 602257867#1 602257867#2 602257867#4 602257867#5 245503037#0 245503037#1 328962562#0 328962562#1 328962562#2 242047953 328962561#0 328962561#1 242045600#1 242045600#2 328962563#0 328962563#1 242949070#0 242949070#1 326814543 104841469 256078750#0 256078750#2 442440282 256078751 115670818#0 4395415#0 4395415#1 4395415#2 328972784#0 328972784#1 325996410 328972785 53376236 326814541#1 326814541#2 326814540 53376237 328972780 62073306 156517063#1 4399070 32341044 32460642                        "></route></vehicle>
    <vehicle type="passenger4a" depart="1173.33" id="a4a44"><route edges="47356744 178988631 156729446 136776464 156725930 328847936 67486819 67486821 67486811 4399096 262649859 262649858 156517055 156729450 178988487#1 639759316 152597286 178988486#2 152597287#0 152597287#1 152597287#2 152597287#3 152597287#5 152597287#6 219716854 219716857#0 219716857#1 219716856#0 -4609572#2 -4609572#1 -4609571#3 -4609567#5 -4609567#4 -4609567#3 -4609567#2 -4609567#1 -4609567#0                        "></route></vehicle>
    <vehicle type="passenger4a" depart="1200.00" id="a4a45"><route edges="-24646323#1 -24646323#0 -24646002#8 -24646002#7 -24646002#6 -24646002#5 -24646002#4 -24646002#3 -24646002#2 -24646002#1 -24646002#0 -60302077#2 -60302077#1 -60302077#0 -520786903 -419882020 -87059422#0 62073787 87059432 64052774 32460618 4433351 62073307 4399103#1 51732984#1 328972785 104728237#0 104728237#1 104728237#2 104728237#3 289112669#0 289112669#1 289112669#2 328972805#0 328972805#1 132314084#0 132314084#1 149149062 -453800738#1 -453800738#0 -454027479 -4432374#5 -4432374#4 -4432374#3 -4432374#2 -4432374#0 -4432390#4 4432392#0 4432392#1                        "></route></vehicle>
    <vehicle type="passenger4a" depart="1226.67" id="a4a46"><route edges="4567395 589943086 -589943087 -4567401#1 590035773 457679900#1 328847941#0 328847941#1 328847941#2 -4399112 156729452 288356688 156729446 156517058 179060432 179061345#1 4399101#0 4399101#1 329286271 53376240 463983939#0 89972201#1 329286297 329286300 4441825#0 4441825#1 4441825#2 -329286256#2 -329286256#0 -329286255 -329286257 4441817#0 4441817#1 4441817#2                        "></route></vehicle>
    <vehicle type="passenger4a" depart="1280.00" id="a4a48"><route edges="4609572#0 -4609571#3 -4609571#2 -4609571#1 -4609571#0 -4609558#10 -4609561#16 -4609561#15 -4609561#13 -4609561#12 -4609561#11 -4609561#10 -4609561#9 -4609561#8 -4609561#7 -4609561#6 -4609561#5 -4609561#4 -4609561#3 -4609561#2 -4609561#1 -4609561#0 4705777#3                        "></route></vehicle>
    <vehicle type="passenger4a" depart="1306.67" id="a4a49"><route edges="60251895 32460618 4433351 62073307 4399103#1 51732984#1 328972785 104728237#0 104728237#1 104728237#2 104728237#3 289112669#0 289112669#1 289112669#2 328972805#0 328972805#1 132314084#0 132314084#1 149149062 -453800738#1 -453800738#0 -454027479 -4432374#5 -4432374#4 -4432374#3 -4432374#2 -4432374#0 -4432390#4 4432392#0 4432392#1                        "></route></vehicle>
    <vehicle type="passenger4a" depart="1333.33" id="a4a50"><route edges="-463982792 4399101#1 329286271 53376240 482265404 4399100 216165774#0 216165774#1 666512604 32341044 4406207 64052771 62072524#0 62072524#1 -62836479#1 -62836477 -26763943#3 -26763943#2 -26763943#1 -24993759#6 -24993759#5 -24993875#1 -24993875#0 63108317#1 -61328647#0                        "></route></vehicle>
    <vehicle type="passenger4a" depart="1386.67" id="a4a52"><route edges="4609572#0 4609572#1 4609572#2 -219716856#0 -219716857#1 -219716857#0 -219716854 -152597287#6 -152597287#5 -152597287#3 -152597287#2 -152597287#1 -152597287#0 583097252#1 328847950 385836126#0 535301458 583922141 328847940 653805453 638446703 -4399112 156729452 288356688 156729446 156517058 179060432 179061345#1 4399101#0 463982792                        "></route></vehicle>
    <vehicle type="passenger4a" depart="1413.33" id="a4a53"><route edges="4609572#0 4609572#1 4609572#2 -219716856#0 -219716857#1 -219716857#0 -219716854 -152597287#6 -152597287#5 -152597287#3 -152597287#2 -152597287#1 -152597287#0 583097252#1 328847950 385836126#0 535301458 583922141 328847940 653805453 638446703 -4399112 156729452 288356688 156729446 156517058 179060432 179061345#1 4399101#0 4399101#1 329286271 53376240 463983939#0 89972201#1 329286297 329286300 4441825#0 4441825#1 4441825#2 -329286256#2 -329286256#0 -329286255 -329286257 -329286254#0 -329286258#5 -329286258#4 -329286258#3 -329286258#1 -329286258#0 -4441823#1 -4441823#0 454027478                        "></route></vehicle>
    <vehicle type="passenger4a" depart="1440.00" id="a4a54"><route edges="84018136#0 84018136#1 84018136#2 28432039#1 28432039#2 28432039#3 62836481 68034410#0 68034410#1 317794101#1 68034419 23723683 4453203#0 4453203#1 -248783828 -4453202 -329163401 -4453205 -110263759#1 110263753#0 110263753#2 110263757#0 110263757#1 329163388#1 329163386 329163390 38820724#1 38820724#3 4427342#0 4427342#1 4427342#2 339934062 32202364 -164209811#4 -164209811#3 -164209811#2 -164209811#1 61319337#1 61319337#3 61319337#4 329163413 252378478#0 252378478#1 177172368 329163391#0 329163391#2 329163391#3                        "></route></vehicle>